version 3
run General-9-20260605-22:38:21-1048198
attr configname General
attr datetime 20260605-22:38:21
attr datetimef 20260605-223821
attr experiment General
attr inifile Test_MLModel_1.ini
attr iterationvars $0=92115
attr iterationvarsd 92115
attr iterationvarsf 92115-
attr measurement $0=92115
attr network Florasat.Test_Individual.Florasat_Individual_Sats
attr processid 1048198
attr repetition 9
attr replication #9
attr resultdir results
attr runnumber 9
attr seedset 9
config *.satellite[0].NoradModule.raan 185
config *.stats_altitude 670
config *.stats_raan 185
config image-path ../../images:../../../../samples/inet4.5_2/images
config network Florasat.Test_Individual.Florasat_Individual_Sats
config rng-class cMersenneTwister
config *.**.result-recording-modes -
config **.result-recording-modes -
config **.statistic-recording true
config **.scalar-recording true
config **.vector-recording true
config **.vector-record-eventnumbers true
config repeat 10
config seed-0-mt 92115
config sim-time-limit 749s
config simtime-resolution -11
config **.stats_altitude 670
config **.stats_raan 185
config *.radioMedium.backgroundNoise.power -110dBm
config *.radioMedium.mediumLimitCache.centerFrequency 868MHz
config *.radioMedium.mediumLimitCache.maxTransmissionDuration 4s
config *.radioMedium.mediumLimitCache.minInterferenceTime 0s
config **.numSatellites 1
config *.satellite[*].mobilityType "\"Sat_Mob_SatelliteMobility_Standalone\""
config *.satellite[*].noradModuleType "\"Sat_Mob_NoradA\""
config **.satellite[*].**.initFromDisplayString false
config *.satellite[*].mobility.faceForward true
config *.satellite[*].mobility.updateInterval 20s
config *.satellite[*].NoradModule.satName "\"FLoRaSat\""
config *.satellite[*].NoradModule.satIndex -1
config *.satellite[*].NoradModule.baseYear 20
config *.satellite[*].NoradModule.baseDay 1.5
config *.satellite[*].NoradModule.planes 1
config *.satellite[*].NoradModule.satPerPlane 1
config *.satellite[*].NoradModule.eccentricity 0.000001
config *.satellite[*].NoradModule.inclination 98
config *.satellite[*].NoradModule.altitude 670
config *.satellite[0].NoradModule.raan 185
config *.satellite[0].NoradModule.meanAnomaly 195
config *.satellite[*].phyDSL.radio.receiver.enableCollisionOverlap true
config *.satellite[*].phyDSL.radio.receiver.minCollisionOverlap 0s
config *.satellite[*].phyDSL.radio.antenna.typename ConstantGainAntenna
config *.satellite[*].phyDSL.radio.antenna.mobilityModule "\"^.^.^.mobility\""
config *.satellite[*].phyISL.radio.antenna.mobilityModule "\"^.^.^.mobility\""
config *.satellite[*].phyGSL.radio.antenna.mobilityModule "\"^.^.^.mobility\""
config *.satellite[*].phyDSL.radio.antenna.gain 12dB
config *.satellite[*].net.routingType "\"Null_Routing\""
config *.terminal[*].net.routingType "\"Ter_Null_Routing\""
config *.**.numGroundLinks 40
config *.satellite[*].**.interfaceTableModule "\"\""
config **.radioMedium.typename LoRaMedium
config **.radioMedium.analogModel.typename LoRaAnalogModel
config **.intraPlaneIslDisabled false
config **.interPlaneIslDisabled false
config **.numTerminals 30
config *.terminal[*].phy.radio.antenna.mobilityModule "\"^.^.^.mob\""
config *.terminal[*].dlk.mac.interfaceTableModule "\"\""
config *.terminal[*].dlk.energySourceModule "\"\""
config *.terminal[*].dlk.mac.LoRaTP "intuniform(12, 14)"
config *.terminal[*].dlk.mac.LoRaSF "intuniform(10, 12)"
config *.terminal[*].dlk.mac.useMLBox true
config *.terminal[*].dlk.mac.mlBox.modelPath "\"/home/ylnner/Documents/omnet++/omnetpp-6.3.0/projects/florasat_v4_ult_routing/simulations/Test_Individual/mlmodels/bilstm_scripted.pt\""
config **.numberOfPacketsToSend 0
config **.timeToFirstPacket 1s
config **.timeToNextPacket 50s
config *.terminal[0].mob.radius 0.0
config *.terminal[0].mob.centerLatitude 54.978
config *.terminal[0].mob.centerLongitude -1.617
config *.terminal[1].mob.radius 0.0
config *.terminal[1].mob.centerLatitude 52.630
config *.terminal[1].mob.centerLongitude -1.139
config *.terminal[2].mob.radius 0.0
config *.terminal[2].mob.centerLatitude 52.612
config *.terminal[2].mob.centerLongitude -6.295
config *.terminal[3].mob.radius 0.0
config *.terminal[3].mob.centerLatitude 47.243
config *.terminal[3].mob.centerLongitude 6.024
config *.terminal[4].mob.radius 0.0
config *.terminal[4].mob.centerLatitude 43.610
config *.terminal[4].mob.centerLongitude 3.876
config *.terminal[5].mob.radius 0.0
config *.terminal[5].mob.centerLatitude 49.443
config *.terminal[5].mob.centerLongitude 1.099
config *.terminal[6].mob.radius 0.0
config *.terminal[6].mob.centerLatitude 37.992
config *.terminal[6].mob.centerLongitude -1.130
config *.terminal[7].mob.radius 0.0
config *.terminal[7].mob.centerLatitude 40.965
config *.terminal[7].mob.centerLongitude -5.664
config *.terminal[8].mob.radius 0.0
config *.terminal[8].mob.centerLatitude 40.657
config *.terminal[8].mob.centerLongitude -7.914
config *.terminal[9].mob.radius 0.0
config *.terminal[9].mob.centerLatitude 51.340
config *.terminal[9].mob.centerLongitude 12.373
config *.terminal[10].mob.radius 0.0
config *.terminal[10].mob.centerLatitude 51.455
config *.terminal[10].mob.centerLongitude 7.011
config *.terminal[11].mob.radius 0.0
config *.terminal[11].mob.centerLatitude 49.452
config *.terminal[11].mob.centerLongitude 11.076
config *.terminal[12].mob.radius 0.0
config *.terminal[12].mob.centerLatitude 43.769
config *.terminal[12].mob.centerLongitude 11.255
config *.terminal[13].mob.radius 0.0
config *.terminal[13].mob.centerLatitude 41.117
config *.terminal[13].mob.centerLongitude 16.871
config *.terminal[14].mob.radius 0.0
config *.terminal[14].mob.centerLatitude 52.132
config *.terminal[14].mob.centerLongitude 5.291
config *.terminal[15].mob.radius 0.0
config *.terminal[15].mob.centerLatitude 50.411
config *.terminal[15].mob.centerLongitude 4.444
config *.terminal[16].mob.radius 0.0
config *.terminal[16].mob.centerLatitude 47.559
config *.terminal[16].mob.centerLongitude 7.588
config *.terminal[17].mob.radius 0.0
config *.terminal[17].mob.centerLatitude 55.403
config *.terminal[17].mob.centerLongitude 10.402
config *.terminal[18].mob.radius 0.0
config *.terminal[18].mob.centerLatitude 59.858
config *.terminal[18].mob.centerLongitude 17.638
config *.terminal[19].mob.radius 0.0
config *.terminal[19].mob.centerLatitude 60.451
config *.terminal[19].mob.centerLongitude 22.266
config *.terminal[20].mob.radius 0.0
config *.terminal[20].mob.centerLatitude 56.325
config *.terminal[20].mob.centerLongitude 22.349
config *.terminal[21].mob.radius 0.0
config *.terminal[21].mob.centerLatitude 49.883
config *.terminal[21].mob.centerLongitude 18.568
config *.terminal[22].mob.radius 0.0
config *.terminal[22].mob.centerLatitude 47.531
config *.terminal[22].mob.centerLongitude 21.627
config *.terminal[23].mob.radius 0.0
config *.terminal[23].mob.centerLatitude 44.179
config *.terminal[23].mob.centerLongitude 28.649
config *.terminal[24].mob.radius 0.0
config *.terminal[24].mob.centerLatitude 45.327
config *.terminal[24].mob.centerLongitude 14.442
config *.terminal[25].mob.radius 0.0
config *.terminal[25].mob.centerLatitude 40.694
config *.terminal[25].mob.centerLongitude 30.400
config *.terminal[26].mob.radius 0.0
config *.terminal[26].mob.centerLatitude 37.066
config *.terminal[26].mob.centerLongitude 37.383
config *.terminal[27].mob.radius 0.0
config *.terminal[27].mob.centerLatitude 64.836
config *.terminal[27].mob.centerLongitude -23.708
config *.terminal[28].mob.radius 0.0
config *.terminal[28].mob.centerLatitude 28.099
config *.terminal[28].mob.centerLongitude -17.113
config *.terminal[29].mob.radius 0.0
config *.terminal[29].mob.centerLatitude 34.921
config *.terminal[29].mob.centerLongitude 33.623
config **.numStations 3
config **.numStations 3
config *.station[0].mobility.latitude 55.752
config *.station[0].mobility.longitude 37.616
config *.station[0].cityName "\"Moscow\""
config *.station[0].groundStationId 7
config *.station[0].routerAddr "\"10.0.0.29\""
config *.station[0].serving "\"10.0.0.29\""
config *.station[1].mobility.latitude 28.652
config *.station[1].mobility.longitude 77.231
config *.station[1].cityName "\"Delhi\""
config *.station[1].groundStationId 11
config *.station[1].routerAddr "\"10.0.0.45\""
config *.station[1].serving "\"10.0.0.45\""
config *.station[2].mobility.latitude 25.35
config *.station[2].mobility.longitude 51.24
config *.station[2].cityName "\"Katar\""
config *.station[2].groundStationId 19
config *.station[2].routerAddr "\"10.0.0.77\""
config *.station[2].serving "\"10.0.0.77\""
config *.visualizer.canvasVisualizer.mediumVisualizer.typename ""
config *.visualizer.*.radioVisualizer.displayAntennaLobes true
config *.visualizer.*.dataLinkVisualizer.displayLinks true
config *.visualizer.*.mobilityVisualizer.displayMovementTrails true
config *.visualizer.*.mobilityVisualizer.movementTrailLineWidth 1
config *.visualizer.*.mobilityVisualizer.trailLength 3000
config **.ttxStart_max 30s
config **.ttxIdle_min 10s
config **.ttxIdle_max 25s
config **.Ntw 2
config **.Ntx 45
config **.ttwDuration 550s

vector 0 Florasat_Individual_Sats.satellite[0].dlkDSL.mac "Satellite Position when Repetition Received" ETV
vector 1 Florasat_Individual_Sats.satellite[0].dlkDSL.mac "Repetition Position for Node 58 at Satellite" ETV
vector 2 Florasat_Individual_Sats.satellite[0].dlkDSL.mac "All Nodes Repetition Generation Delay at Satellite" ETV
vector 3 Florasat_Individual_Sats.satellite[0].dlkDSL.mac "Repetition Generation Delay for Node 58 at Satellite" ETV
vector 4 Florasat_Individual_Sats.satellite[0].dlkDSL.mac "All Nodes Message Generation Delay at Satellite" ETV
vector 5 Florasat_Individual_Sats.satellite[0].dlkDSL.mac "Message Generation Delay for Node 58 at Satellite" ETV
vector 6 Florasat_Individual_Sats.satellite[0].net.packetHandler "packets received" ETV
vector 7 Florasat_Individual_Sats.satellite[0].net.packetHandler "dropped unroutable" ETV
vector 8 Florasat_Individual_Sats.satellite[0].net.packetHandler "packets dropped" ETV
vector 9 Florasat_Individual_Sats.satellite[0].dlkDSL.mac "Repetition Position for Node 358 at Satellite" ETV
vector 10 Florasat_Individual_Sats.satellite[0].dlkDSL.mac "Repetition Generation Delay for Node 358 at Satellite" ETV
vector 11 Florasat_Individual_Sats.satellite[0].dlkDSL.mac "Message Generation Delay for Node 358 at Satellite" ETV
vector 12 Florasat_Individual_Sats.satellite[0].dlkDSL.mac "Repetition Position for Node 463 at Satellite" ETV
vector 13 Florasat_Individual_Sats.satellite[0].dlkDSL.mac "Repetition Generation Delay for Node 463 at Satellite" ETV
vector 14 Florasat_Individual_Sats.satellite[0].dlkDSL.mac "Message Generation Delay for Node 463 at Satellite" ETV
vector 15 Florasat_Individual_Sats.satellite[0].dlkDSL.mac "Repetition Position for Node 328 at Satellite" ETV
vector 16 Florasat_Individual_Sats.satellite[0].dlkDSL.mac "Repetition Generation Delay for Node 328 at Satellite" ETV
vector 17 Florasat_Individual_Sats.satellite[0].dlkDSL.mac "Message Generation Delay for Node 328 at Satellite" ETV
vector 18 Florasat_Individual_Sats.satellite[0].dlkDSL.mac "Repetition Position for Node 418 at Satellite" ETV
vector 19 Florasat_Individual_Sats.satellite[0].dlkDSL.mac "Repetition Generation Delay for Node 418 at Satellite" ETV
vector 20 Florasat_Individual_Sats.satellite[0].dlkDSL.mac "Message Generation Delay for Node 418 at Satellite" ETV
vector 21 Florasat_Individual_Sats.satellite[0].dlkDSL.mac "Repetition Position for Node 343 at Satellite" ETV
vector 22 Florasat_Individual_Sats.satellite[0].dlkDSL.mac "Repetition Generation Delay for Node 343 at Satellite" ETV
vector 23 Florasat_Individual_Sats.satellite[0].dlkDSL.mac "Message Generation Delay for Node 343 at Satellite" ETV
vector 24 Florasat_Individual_Sats.satellite[0].dlkDSL.mac "Repetition Position for Node 73 at Satellite" ETV
vector 25 Florasat_Individual_Sats.satellite[0].dlkDSL.mac "Repetition Generation Delay for Node 73 at Satellite" ETV
vector 26 Florasat_Individual_Sats.satellite[0].dlkDSL.mac "Message Generation Delay for Node 73 at Satellite" ETV
vector 27 Florasat_Individual_Sats.satellite[0].dlkDSL.mac "Repetition Position for Node 133 at Satellite" ETV
vector 28 Florasat_Individual_Sats.satellite[0].dlkDSL.mac "Repetition Generation Delay for Node 133 at Satellite" ETV
vector 29 Florasat_Individual_Sats.satellite[0].dlkDSL.mac "Message Generation Delay for Node 133 at Satellite" ETV
vector 30 Florasat_Individual_Sats.satellite[0].dlkDSL.mac "Repetition Position for Node 298 at Satellite" ETV
vector 31 Florasat_Individual_Sats.satellite[0].dlkDSL.mac "Repetition Generation Delay for Node 298 at Satellite" ETV
vector 32 Florasat_Individual_Sats.satellite[0].dlkDSL.mac "Message Generation Delay for Node 298 at Satellite" ETV
vector 33 Florasat_Individual_Sats.satellite[0].dlkDSL.mac "Repetition Position for Node 193 at Satellite" ETV
vector 34 Florasat_Individual_Sats.satellite[0].dlkDSL.mac "Repetition Generation Delay for Node 193 at Satellite" ETV
vector 35 Florasat_Individual_Sats.satellite[0].dlkDSL.mac "Message Generation Delay for Node 193 at Satellite" ETV
vector 36 Florasat_Individual_Sats.satellite[0].dlkDSL.mac "Repetition Position for Node 313 at Satellite" ETV
vector 37 Florasat_Individual_Sats.satellite[0].dlkDSL.mac "Repetition Generation Delay for Node 313 at Satellite" ETV
vector 38 Florasat_Individual_Sats.satellite[0].dlkDSL.mac "Message Generation Delay for Node 313 at Satellite" ETV
vector 39 Florasat_Individual_Sats.satellite[0].dlkDSL.mac "Repetition Position for Node 223 at Satellite" ETV
vector 40 Florasat_Individual_Sats.satellite[0].dlkDSL.mac "Repetition Generation Delay for Node 223 at Satellite" ETV
vector 41 Florasat_Individual_Sats.satellite[0].dlkDSL.mac "Message Generation Delay for Node 223 at Satellite" ETV
vector 42 Florasat_Individual_Sats.satellite[0].dlkDSL.mac "Repetition Position for Node 283 at Satellite" ETV
vector 43 Florasat_Individual_Sats.satellite[0].dlkDSL.mac "Repetition Generation Delay for Node 283 at Satellite" ETV
vector 44 Florasat_Individual_Sats.satellite[0].dlkDSL.mac "Message Generation Delay for Node 283 at Satellite" ETV
vector 45 Florasat_Individual_Sats.satellite[0].dlkDSL.mac "Repetition Position for Node 268 at Satellite" ETV
vector 46 Florasat_Individual_Sats.satellite[0].dlkDSL.mac "Repetition Generation Delay for Node 268 at Satellite" ETV
vector 47 Florasat_Individual_Sats.satellite[0].dlkDSL.mac "Message Generation Delay for Node 268 at Satellite" ETV
vector 48 Florasat_Individual_Sats.satellite[0].dlkDSL.mac "Repetition Position for Node 253 at Satellite" ETV
vector 49 Florasat_Individual_Sats.satellite[0].dlkDSL.mac "Repetition Generation Delay for Node 253 at Satellite" ETV
vector 50 Florasat_Individual_Sats.satellite[0].dlkDSL.mac "Message Generation Delay for Node 253 at Satellite" ETV
vector 51 Florasat_Individual_Sats.satellite[0].dlkDSL.mac "Repetition Position for Node 208 at Satellite" ETV
vector 52 Florasat_Individual_Sats.satellite[0].dlkDSL.mac "Repetition Generation Delay for Node 208 at Satellite" ETV
vector 53 Florasat_Individual_Sats.satellite[0].dlkDSL.mac "Message Generation Delay for Node 208 at Satellite" ETV
vector 54 Florasat_Individual_Sats.satellite[0].dlkDSL.mac "Repetition Position for Node 388 at Satellite" ETV
vector 55 Florasat_Individual_Sats.satellite[0].dlkDSL.mac "Repetition Generation Delay for Node 388 at Satellite" ETV
vector 56 Florasat_Individual_Sats.satellite[0].dlkDSL.mac "Message Generation Delay for Node 388 at Satellite" ETV
vector 57 Florasat_Individual_Sats.satellite[0].dlkDSL.mac "Repetition Position for Node 403 at Satellite" ETV
vector 58 Florasat_Individual_Sats.satellite[0].dlkDSL.mac "Repetition Generation Delay for Node 403 at Satellite" ETV
vector 59 Florasat_Individual_Sats.satellite[0].dlkDSL.mac "Message Generation Delay for Node 403 at Satellite" ETV
vector 60 Florasat_Individual_Sats.satellite[0].dlkDSL.mac "Repetition Position for Node 178 at Satellite" ETV
vector 61 Florasat_Individual_Sats.satellite[0].dlkDSL.mac "Repetition Generation Delay for Node 178 at Satellite" ETV
vector 62 Florasat_Individual_Sats.satellite[0].dlkDSL.mac "Message Generation Delay for Node 178 at Satellite" ETV
vector 63 Florasat_Individual_Sats.satellite[0].dlkDSL.mac "Repetition Position for Node 238 at Satellite" ETV
vector 64 Florasat_Individual_Sats.satellite[0].dlkDSL.mac "Repetition Generation Delay for Node 238 at Satellite" ETV
vector 65 Florasat_Individual_Sats.satellite[0].dlkDSL.mac "Message Generation Delay for Node 238 at Satellite" ETV
vector 66 Florasat_Individual_Sats.satellite[0].dlkDSL.mac "Repetition Position for Node 448 at Satellite" ETV
vector 67 Florasat_Individual_Sats.satellite[0].dlkDSL.mac "Repetition Generation Delay for Node 448 at Satellite" ETV
vector 68 Florasat_Individual_Sats.satellite[0].dlkDSL.mac "Message Generation Delay for Node 448 at Satellite" ETV
vector 69 Florasat_Individual_Sats.satellite[0].dlkDSL.mac "Repetition Position for Node 88 at Satellite" ETV
vector 70 Florasat_Individual_Sats.satellite[0].dlkDSL.mac "Repetition Generation Delay for Node 88 at Satellite" ETV
vector 71 Florasat_Individual_Sats.satellite[0].dlkDSL.mac "Message Generation Delay for Node 88 at Satellite" ETV
vector 72 Florasat_Individual_Sats.satellite[0].dlkDSL.mac "Repetition Position for Node 373 at Satellite" ETV
vector 73 Florasat_Individual_Sats.satellite[0].dlkDSL.mac "Repetition Generation Delay for Node 373 at Satellite" ETV
vector 74 Florasat_Individual_Sats.satellite[0].dlkDSL.mac "Message Generation Delay for Node 373 at Satellite" ETV
vector 75 Florasat_Individual_Sats.satellite[0].dlkDSL.mac "Repetition Position for Node 118 at Satellite" ETV
vector 76 Florasat_Individual_Sats.satellite[0].dlkDSL.mac "Repetition Generation Delay for Node 118 at Satellite" ETV
vector 77 Florasat_Individual_Sats.satellite[0].dlkDSL.mac "Message Generation Delay for Node 118 at Satellite" ETV
vector 78 Florasat_Individual_Sats.satellite[0].dlkDSL.mac "Repetition Position for Node 493 at Satellite" ETV
vector 79 Florasat_Individual_Sats.satellite[0].dlkDSL.mac "Repetition Generation Delay for Node 493 at Satellite" ETV
vector 80 Florasat_Individual_Sats.satellite[0].dlkDSL.mac "Message Generation Delay for Node 493 at Satellite" ETV
vector 81 Florasat_Individual_Sats.satellite[0].dlkDSL.mac "Repetition Position for Node 148 at Satellite" ETV
vector 82 Florasat_Individual_Sats.satellite[0].dlkDSL.mac "Repetition Generation Delay for Node 148 at Satellite" ETV
vector 83 Florasat_Individual_Sats.satellite[0].dlkDSL.mac "Message Generation Delay for Node 148 at Satellite" ETV
vector 84 Florasat_Individual_Sats.satellite[0].dlkDSL.mac "Repetition Position for Node 433 at Satellite" ETV
vector 85 Florasat_Individual_Sats.satellite[0].dlkDSL.mac "Repetition Generation Delay for Node 433 at Satellite" ETV
vector 86 Florasat_Individual_Sats.satellite[0].dlkDSL.mac "Message Generation Delay for Node 433 at Satellite" ETV
vector 87 Florasat_Individual_Sats.satellite[0].dlkDSL.mac "Repetition Position for Node 163 at Satellite" ETV
vector 88 Florasat_Individual_Sats.satellite[0].dlkDSL.mac "Repetition Generation Delay for Node 163 at Satellite" ETV
vector 89 Florasat_Individual_Sats.satellite[0].dlkDSL.mac "Message Generation Delay for Node 163 at Satellite" ETV
vector 90 Florasat_Individual_Sats.satellite[0].dlkDSL.mac "Repetition Position for Node 103 at Satellite" ETV
vector 91 Florasat_Individual_Sats.satellite[0].dlkDSL.mac "Repetition Generation Delay for Node 103 at Satellite" ETV
vector 92 Florasat_Individual_Sats.satellite[0].dlkDSL.mac "Message Generation Delay for Node 103 at Satellite" ETV
0	159	8.6323445428	180
0	199	16.28533629295	180
0	233	22.3598713938	180
0	343	30.00151245034	180
0	368	33.25909624671	180
0	377	34.43523603668	180
0	391	36.37514593409	180
0	403	37.26692231781	180
0	668	55.01670545958	180
0	676	55.87655633552	180
0	693	58.70920752388	180
0	792	66.50965991257	180
0	816	70.28254248997	180
0	876	77.2477105848	180
0	961	85.64580000116	180
0	968	86.13645679377	180
0	973	87.33475689057	180
0	1046	94.79953732089	180
0	1064	96.30128795574	180
0	1074	96.77779735991	180
0	1082	97.01927122058	180
0	1223	104.60030521493	180
0	1234	105.29325633187	180
0	1352	116.27121742176	180
0	1387	118.98447982598	180
0	1395	119.34250936721	180
0	1512	129.83970819916	180
0	1516	130.10098031832	180
0	1560	135.37147660218	180
0	1578	137.46236596935	180
0	1624	141.87616750891	180
0	1648	144.88691284534	180
0	1670	147.6375164866	180
0	1680	148.46984147503	180
0	1695	149.39909063805	180
0	1709	150.30538923682	180
0	1840	154.29452181192	180
0	1852	154.69399936025	180
0	1856	155.36340432068	180
0	1931	160.6432714662	180
0	1953	163.06382210287	180
0	1957	163.9767011905	180
0	1990	168.76401065144	180
0	2010	169.61793524622	180
0	2111	180.73016605633	180
0	2126	181.98667369545	180
0	2174	185.6326182023	180
0	2178	185.89140555184	180
0	2209	190.28753701591	180
0	2213	190.43296151506	180
0	2227	192.10437634787	180
0	2254	194.39970667999	180
0	2262	194.98180860763	180
0	2275	195.98582103027	180
0	2285	197.12254588783	180
0	2307	198.30313080914	180
0	2454	205.52959343012	180
0	2464	205.9561951353	180
0	2495	208.80776667912	180
0	2515	209.83649185037	180
0	2550	212.25369412782	180
0	2574	214.80587414227	180
0	2592	217.90132960634	180
0	2609	219.99530328197	180
0	2624	221.73452067299	180
0	2629	221.97230895146	180
0	2636	222.20015615402	180
0	2656	223.2673282741	180
0	2664	223.8167411378	180
0	2685	225.44612326952	180
0	2689	225.47076872427	180
0	2701	226.29512130743	180
0	2705	226.61298644906	180
0	2744	230.0411026655	180
0	2763	233.7838182167	180
0	2792	236.55292613528	180
0	2863	242.42586947456	180
0	2889	244.04355640467	180
0	2900	244.47175087751	180
0	2909	245.49761616268	180
0	2913	245.90103575009	180
0	2930	247.44316882048	180
0	2935	247.63336488738	180
0	2946	250.5758888191	180
0	3054	252.26325999074	180
0	3058	252.9087910217	180
0	3107	256.65205160266	180
0	3125	257.63432275381	180
0	3129	257.82252727486	180
0	3143	258.93076372444	180
0	3166	261.32489601246	180
0	3203	263.36914306033	180
0	3229	267.46709634959	180
0	3237	268.46986086168	180
0	3277	272.55612018462	180
0	3296	275.57471058275	180
0	3307	276.14818200346	180
0	3312	277.21623708125	180
0	3325	278.3711283863	180
0	3335	279.19206049751	180
0	3339	279.23582152639	180
0	3368	283.23660869845	180
0	3373	283.81258087875	180
0	3389	284.95122177004	180
0	3431	289.82929237762	180
0	3439	290.96468098791	180
0	3460	297.52320236005	180
0	3464	297.63830884457	180
0	3479	300.73501859617	180
0	3574	301.01977350651	180
0	3591	305.83105152918	180
0	3613	308.49222362137	180
0	3621	309.36880532014	180
0	3629	310.53445750607	180
0	3665	322.43735342033	180
0	3672	322.87477550973	180
0	3676	323.18529540084	180
0	3706	331.16472954971	180
0	3743	348.17345970523	180
0	3849	351.71185659354	180
0	3857	354.09480815051	180
0	3865	355.44498553443	180
0	3885	359.10203946153	180
0	3913	365.14074781889	180
0	3949	374.19398397188	180
0	3967	380.4315926518	180
0	3971	380.64110423498	180
0	3991	387.97745662955	180
0	4014	394.71483873314	180
0	4028	399.43428904497	180
0	4135	401.74163247206	180
0	4141	402.42734919943	180
0	4150	403.41039847293	180
0	4159	404.57800428492	180
0	4178	406.90740609522	180
0	4187	407.85163217285	180
0	4196	408.31688489294	180
0	4208	409.37621813843	180
0	4212	409.90070024798	180
0	4235	418.60647792985	180
0	4258	424.95206011208	180
0	4282	430.28432273985	180
0	4291	432.67806273014	180
0	4315	437.60273137305	180
0	4345	445.96333696838	180
0	4467	455.20590390888	180
0	4497	464.68861294775	180
0	4515	469.25652987538	180
0	4525	473.03787456187	180
0	4541	477.51312616842	180
0	4550	479.21123733374	180
0	4567	482.19923676284	180
0	4591	487.11309758657	180
0	4614	494.16333358212	180
0	4625	498.07422200443	180
0	4639	500.97807448921	180
0	4738	502.04948852594	180
0	4759	506.49170743826	180
0	4772	508.07591860979	180
0	4787	511.36764771365	180
0	4801	514.67052946858	180
0	4806	515.3605903299	180
0	4817	518.58089600167	180
0	4837	520.72839694621	180
0	4874	528.18114520926	180
0	4898	536.01827060665	180
0	4917	540.16447797166	180
0	4926	541.97927752569	180
0	4940	547.73125776147	180
0	5076	552.49092874876	180
0	5089	559.11468330598	180
0	5099	562.14606149415	180
0	5132	572.02409685104	180
0	5144	573.42418970368	180
0	5159	574.78608207604	180
0	5173	576.8079584509	180
0	5177	576.93006604787	180
0	5190	578.33786933277	180
0	5203	580.04633957035	180
0	5226	586.83656488838	180
0	5255	592.4061493989	180
0	5408	606.9108178872	180
0	5412	606.94681008173	180
0	5425	610.33470170786	180
0	5435	611.92835712087	180
0	5442	612.75094111743	180
0	5463	619.50213211415	180
0	5475	621.10819478695	180
0	5479	621.47708308048	180
0	5496	624.56855155625	180
0	5500	624.690006419	180
0	5538	629.98871177844	180
0	5559	636.56724000176	180
0	5568	637.51865273517	180
0	5587	643.72444253474	180
0	5616	648.54787310799	180
0	5623	648.84439414659	180
0	5764	660.09510398009	180
0	5778	664.3418080517	180
0	5799	670.96841362648	180
0	5844	678.34968435754	180
0	5867	681.51547569762	180
0	5884	685.44818071526	180
0	5899	689.33752852319	180
0	5905	689.69421205906	180
0	5915	690.64035945166	180
0	5933	691.77792410891	180
0	5941	693.05142453969	180
0	6118	705.47790002887	180
0	6146	710.56523160254	180
0	6181	720.06273139145	180
0	6212	726.26913518589	180
0	6240	731.0296020232	180
0	6245	731.11119974269	180
0	6253	732.33208436114	180
0	6304	743.82568443072	180
0	6314	744.6138296259	180
1	159	8.6323445428	180
1	973	87.33475689057	180
1	3058	252.9087910217	180
1	4898	536.01827060665	180
1	5203	580.04633957035	180
2	159	8.6323445428	7.6323445428
2	199	16.28533629295	15.28533629295
2	233	22.3598713938	21.3598713938
2	343	30.00151245034	29.00151245034
2	368	33.25909624671	32.25909624671
2	377	34.43523603668	33.43523603668
2	391	36.37514593409	35.37514593409
2	403	37.26692231781	36.26692231781
2	668	55.01670545958	54.01670545958
2	676	55.87655633552	54.87655633552
2	693	58.70920752388	57.70920752388
2	792	66.50965991257	65.50965991257
2	816	70.28254248997	69.28254248997
2	876	77.2477105848	76.2477105848
2	961	85.64580000116	84.64580000116
2	968	86.13645679377	85.13645679377
2	973	87.33475689057	86.33475689057
2	1046	94.79953732089	93.79953732089
2	1064	96.30128795574	95.30128795574
2	1074	96.77779735991	95.77779735991
2	1082	97.01927122058	96.01927122058
2	1223	104.60030521493	103.60030521493
2	1234	105.29325633187	104.29325633187
2	1352	116.27121742176	115.27121742176
2	1387	118.98447982598	117.98447982598
2	1395	119.34250936721	118.34250936721
2	1512	129.83970819916	128.83970819916
2	1516	130.10098031832	129.10098031832
2	1560	135.37147660218	134.37147660218
2	1578	137.46236596935	136.46236596935
2	1624	141.87616750891	140.87616750891
2	1648	144.88691284534	143.88691284534
2	1670	147.6375164866	146.6375164866
2	1680	148.46984147503	147.46984147503
2	1695	149.39909063805	148.39909063805
2	1709	150.30538923682	149.30538923682
2	1840	154.29452181192	153.29452181192
2	1852	154.69399936025	153.69399936025
2	1856	155.36340432068	154.36340432068
2	1931	160.6432714662	159.6432714662
2	1953	163.06382210287	162.06382210287
2	1957	163.9767011905	162.9767011905
2	1990	168.76401065144	167.76401065144
2	2010	169.61793524622	168.61793524622
2	2111	180.73016605633	179.73016605633
2	2126	181.98667369545	180.98667369545
2	2174	185.6326182023	184.6326182023
2	2178	185.89140555184	184.89140555184
2	2209	190.28753701591	189.28753701591
2	2213	190.43296151506	189.43296151506
2	2227	192.10437634787	191.10437634787
2	2254	194.39970667999	193.39970667999
2	2262	194.98180860763	193.98180860763
2	2275	195.98582103027	194.98582103027
2	2285	197.12254588783	196.12254588783
2	2307	198.30313080914	197.30313080914
2	2454	205.52959343012	204.52959343012
2	2464	205.9561951353	204.9561951353
2	2495	208.80776667912	207.80776667912
2	2515	209.83649185037	208.83649185037
2	2550	212.25369412782	211.25369412782
2	2574	214.80587414227	213.80587414227
2	2592	217.90132960634	216.90132960634
2	2609	219.99530328197	218.99530328197
2	2624	221.73452067299	220.73452067299
2	2629	221.97230895146	220.97230895146
2	2636	222.20015615402	221.20015615402
2	2656	223.2673282741	222.2673282741
2	2664	223.8167411378	222.8167411378
2	2685	225.44612326952	224.44612326952
2	2689	225.47076872427	224.47076872427
2	2701	226.29512130743	225.29512130743
2	2705	226.61298644906	225.61298644906
2	2744	230.0411026655	229.0411026655
2	2763	233.7838182167	232.7838182167
2	2792	236.55292613528	235.55292613528
2	2863	242.42586947456	241.42586947456
2	2889	244.04355640467	243.04355640467
2	2900	244.47175087751	243.47175087751
2	2909	245.49761616268	244.49761616268
2	2913	245.90103575009	244.90103575009
2	2930	247.44316882048	246.44316882048
2	2935	247.63336488738	246.63336488738
2	2946	250.5758888191	249.5758888191
2	3054	252.26325999074	251.26325999074
2	3058	252.9087910217	251.9087910217
2	3107	256.65205160266	255.65205160266
2	3125	257.63432275381	256.63432275381
2	3129	257.82252727486	256.82252727486
2	3143	258.93076372444	257.93076372444
2	3166	261.32489601246	260.32489601246
2	3203	263.36914306033	262.36914306033
2	3229	267.46709634959	266.46709634959
2	3237	268.46986086168	267.46986086168
2	3277	272.55612018462	271.55612018462
2	3296	275.57471058275	274.57471058275
2	3307	276.14818200346	275.14818200346
2	3312	277.21623708125	276.21623708125
2	3325	278.3711283863	277.3711283863
2	3335	279.19206049751	278.19206049751
2	3339	279.23582152639	278.23582152639
2	3368	283.23660869845	282.23660869845
2	3373	283.81258087875	282.81258087875
2	3389	284.95122177004	283.95122177004
2	3431	289.82929237762	288.82929237762
2	3439	290.96468098791	289.96468098791
2	3460	297.52320236005	296.52320236005
2	3464	297.63830884457	296.63830884457
2	3479	300.73501859617	299.73501859617
2	3574	301.01977350651	300.01977350651
2	3591	305.83105152918	304.83105152918
2	3613	308.49222362137	307.49222362137
2	3621	309.36880532014	308.36880532014
2	3629	310.53445750607	309.53445750607
2	3665	322.43735342033	321.43735342033
2	3672	322.87477550973	321.87477550973
2	3676	323.18529540084	322.18529540084
2	3706	331.16472954971	330.16472954971
2	3743	348.17345970523	347.17345970523
2	3849	351.71185659354	350.71185659354
2	3857	354.09480815051	353.09480815051
2	3865	355.44498553443	354.44498553443
2	3885	359.10203946153	358.10203946153
2	3913	365.14074781889	364.14074781889
2	3949	374.19398397188	373.19398397188
2	3967	380.4315926518	379.4315926518
2	3971	380.64110423498	379.64110423498
2	3991	387.97745662955	386.97745662955
2	4014	394.71483873314	393.71483873314
2	4028	399.43428904497	398.43428904497
2	4135	401.74163247206	400.74163247206
2	4141	402.42734919943	401.42734919943
2	4150	403.41039847293	402.41039847293
2	4159	404.57800428492	403.57800428492
2	4178	406.90740609522	405.90740609522
2	4187	407.85163217285	406.85163217285
2	4196	408.31688489294	407.31688489294
2	4208	409.37621813843	408.37621813843
2	4212	409.90070024798	408.90070024798
2	4235	418.60647792985	417.60647792985
2	4258	424.95206011208	423.95206011208
2	4282	430.28432273985	429.28432273985
2	4291	432.67806273014	431.67806273014
2	4315	437.60273137305	436.60273137305
2	4345	445.96333696838	444.96333696838
2	4467	455.20590390888	454.20590390888
2	4497	464.68861294775	463.68861294775
2	4515	469.25652987538	468.25652987538
2	4525	473.03787456187	472.03787456187
2	4541	477.51312616842	476.51312616842
2	4550	479.21123733374	478.21123733374
2	4567	482.19923676284	481.19923676284
2	4591	487.11309758657	486.11309758657
2	4614	494.16333358212	493.16333358212
2	4625	498.07422200443	497.07422200443
2	4639	500.97807448921	499.97807448921
2	4738	502.04948852594	501.04948852594
2	4759	506.49170743826	505.49170743826
2	4772	508.07591860979	507.07591860979
2	4787	511.36764771365	510.36764771365
2	4801	514.67052946858	513.67052946858
2	4806	515.3605903299	514.3605903299
2	4817	518.58089600167	517.58089600167
2	4837	520.72839694621	519.72839694621
2	4874	528.18114520926	527.18114520926
2	4898	536.01827060665	535.01827060665
2	4917	540.16447797166	539.16447797166
2	4926	541.97927752569	540.97927752569
2	4940	547.73125776147	546.73125776147
2	5076	552.49092874876	551.49092874876
2	5089	559.11468330598	558.11468330598
2	5099	562.14606149415	561.14606149415
2	5132	572.02409685104	571.02409685104
2	5144	573.42418970368	572.42418970368
2	5159	574.78608207604	573.78608207604
2	5173	576.8079584509	575.8079584509
2	5177	576.93006604787	575.93006604787
2	5190	578.33786933277	577.33786933277
2	5203	580.04633957035	579.04633957035
2	5226	586.83656488838	585.83656488838
2	5255	592.4061493989	591.4061493989
2	5408	606.9108178872	605.9108178872
2	5412	606.94681008173	605.94681008173
2	5425	610.33470170786	609.33470170786
2	5435	611.92835712087	610.92835712087
2	5442	612.75094111743	611.75094111743
2	5463	619.50213211415	618.50213211415
2	5475	621.10819478695	620.10819478695
2	5479	621.47708308048	620.47708308048
2	5496	624.56855155625	623.56855155625
2	5500	624.690006419	623.690006419
2	5538	629.98871177844	628.98871177844
2	5559	636.56724000176	635.56724000176
2	5568	637.51865273517	636.51865273517
2	5587	643.72444253474	642.72444253474
2	5616	648.54787310799	647.54787310799
2	5623	648.84439414659	647.84439414659
2	5764	660.09510398009	659.09510398009
2	5778	664.3418080517	663.3418080517
2	5799	670.96841362648	669.96841362648
2	5844	678.34968435754	677.34968435754
2	5867	681.51547569762	680.51547569762
2	5884	685.44818071526	684.44818071526
2	5899	689.33752852319	688.33752852319
2	5905	689.69421205906	688.69421205906
2	5915	690.64035945166	689.64035945166
2	5933	691.77792410891	690.77792410891
2	5941	693.05142453969	692.05142453969
2	6118	705.47790002887	704.47790002887
2	6146	710.56523160254	709.56523160254
2	6181	720.06273139145	719.06273139145
2	6212	726.26913518589	725.26913518589
2	6240	731.0296020232	730.0296020232
2	6245	731.11119974269	730.11119974269
2	6253	732.33208436114	731.33208436114
2	6304	743.82568443072	742.82568443072
2	6314	744.6138296259	743.6138296259
3	159	8.6323445428	7.6323445428
3	973	87.33475689057	86.33475689057
3	3058	252.9087910217	251.9087910217
3	4898	536.01827060665	535.01827060665
3	5203	580.04633957035	579.04633957035
4	159	8.6323445428	7.6323445428
4	199	16.28533629295	15.28533629295
4	233	22.3598713938	21.3598713938
4	343	30.00151245034	29.00151245034
4	368	33.25909624671	32.25909624671
4	403	37.26692231781	36.26692231781
4	676	55.87655633552	54.87655633552
4	816	70.28254248997	69.28254248997
4	968	86.13645679377	85.13645679377
4	1223	104.60030521493	103.60030521493
4	1234	105.29325633187	104.29325633187
4	1387	118.98447982598	117.98447982598
4	1624	141.87616750891	140.87616750891
4	1648	144.88691284534	143.88691284534
4	1695	149.39909063805	148.39909063805
4	1840	154.29452181192	153.29452181192
4	1856	155.36340432068	154.36340432068
4	1931	160.6432714662	159.6432714662
4	2213	190.43296151506	189.43296151506
4	2262	194.98180860763	193.98180860763
4	2285	197.12254588783	196.12254588783
4	2550	212.25369412782	211.25369412782
4	2744	230.0411026655	229.0411026655
4	2909	245.49761616268	244.49761616268
4	2913	245.90103575009	244.90103575009
4	3312	277.21623708125	276.21623708125
4	3325	278.3711283863	277.3711283863
4	3460	297.52320236005	296.52320236005
4	3479	300.73501859617	299.73501859617
5	159	8.6323445428	7.6323445428
6	160	8.6323445428	1
6	200	16.28533629295	2
6	234	22.3598713938	3
6	344	30.00151245034	4
6	369	33.25909624671	5
6	378	34.43523603668	6
6	392	36.37514593409	7
6	404	37.26692231781	8
6	669	55.01670545958	9
6	677	55.87655633552	10
6	694	58.70920752388	11
6	793	66.50965991257	12
6	817	70.28254248997	13
6	877	77.2477105848	14
6	962	85.64580000116	15
6	969	86.13645679377	16
6	974	87.33475689057	17
6	1047	94.79953732089	18
6	1065	96.30128795574	19
6	1075	96.77779735991	20
6	1083	97.01927122058	21
6	1224	104.60030521493	22
6	1235	105.29325633187	23
6	1353	116.27121742176	24
6	1388	118.98447982598	25
6	1396	119.34250936721	26
6	1513	129.83970819916	27
6	1517	130.10098031832	28
6	1561	135.37147660218	29
6	1579	137.46236596935	30
6	1625	141.87616750891	31
6	1649	144.88691284534	32
6	1671	147.6375164866	33
6	1681	148.46984147503	34
6	1696	149.39909063805	35
6	1710	150.30538923682	36
6	1841	154.29452181192	37
6	1853	154.69399936025	38
6	1857	155.36340432068	39
6	1932	160.6432714662	40
6	1954	163.06382210287	41
6	1958	163.9767011905	42
6	1991	168.76401065144	43
6	2011	169.61793524622	44
6	2112	180.73016605633	45
6	2127	181.98667369545	46
6	2175	185.6326182023	47
6	2179	185.89140555184	48
6	2210	190.28753701591	49
6	2214	190.43296151506	50
6	2228	192.10437634787	51
6	2255	194.39970667999	52
6	2263	194.98180860763	53
6	2276	195.98582103027	54
6	2286	197.12254588783	55
6	2308	198.30313080914	56
6	2455	205.52959343012	57
6	2465	205.9561951353	58
6	2496	208.80776667912	59
6	2516	209.83649185037	60
6	2551	212.25369412782	61
6	2575	214.80587414227	62
6	2593	217.90132960634	63
6	2610	219.99530328197	64
6	2625	221.73452067299	65
6	2630	221.97230895146	66
6	2637	222.20015615402	67
6	2657	223.2673282741	68
6	2665	223.8167411378	69
6	2686	225.44612326952	70
6	2690	225.47076872427	71
6	2702	226.29512130743	72
6	2706	226.61298644906	73
6	2745	230.0411026655	74
6	2764	233.7838182167	75
6	2793	236.55292613528	76
6	2864	242.42586947456	77
6	2890	244.04355640467	78
6	2901	244.47175087751	79
6	2910	245.49761616268	80
6	2914	245.90103575009	81
6	2931	247.44316882048	82
6	2936	247.63336488738	83
6	2947	250.5758888191	84
6	3055	252.26325999074	85
6	3059	252.9087910217	86
6	3108	256.65205160266	87
6	3126	257.63432275381	88
6	3130	257.82252727486	89
6	3144	258.93076372444	90
6	3167	261.32489601246	91
6	3204	263.36914306033	92
6	3230	267.46709634959	93
6	3238	268.46986086168	94
6	3278	272.55612018462	95
6	3297	275.57471058275	96
6	3308	276.14818200346	97
6	3313	277.21623708125	98
6	3326	278.3711283863	99
6	3336	279.19206049751	100
6	3340	279.23582152639	101
6	3369	283.23660869845	102
6	3374	283.81258087875	103
6	3390	284.95122177004	104
6	3432	289.82929237762	105
6	3440	290.96468098791	106
6	3461	297.52320236005	107
6	3465	297.63830884457	108
6	3480	300.73501859617	109
6	3575	301.01977350651	110
6	3592	305.83105152918	111
6	3614	308.49222362137	112
6	3622	309.36880532014	113
6	3630	310.53445750607	114
6	3666	322.43735342033	115
6	3673	322.87477550973	116
6	3677	323.18529540084	117
6	3707	331.16472954971	118
6	3744	348.17345970523	119
6	3850	351.71185659354	120
6	3858	354.09480815051	121
6	3866	355.44498553443	122
6	3886	359.10203946153	123
6	3914	365.14074781889	124
6	3950	374.19398397188	125
6	3968	380.4315926518	126
6	3972	380.64110423498	127
6	3992	387.97745662955	128
6	4015	394.71483873314	129
6	4029	399.43428904497	130
6	4136	401.74163247206	131
6	4142	402.42734919943	132
6	4151	403.41039847293	133
6	4160	404.57800428492	134
6	4179	406.90740609522	135
6	4188	407.85163217285	136
6	4197	408.31688489294	137
6	4209	409.37621813843	138
6	4213	409.90070024798	139
6	4236	418.60647792985	140
6	4259	424.95206011208	141
6	4283	430.28432273985	142
6	4292	432.67806273014	143
6	4316	437.60273137305	144
6	4346	445.96333696838	145
6	4468	455.20590390888	146
6	4498	464.68861294775	147
6	4516	469.25652987538	148
6	4526	473.03787456187	149
6	4542	477.51312616842	150
6	4551	479.21123733374	151
6	4568	482.19923676284	152
6	4592	487.11309758657	153
6	4615	494.16333358212	154
6	4626	498.07422200443	155
6	4640	500.97807448921	156
6	4739	502.04948852594	157
6	4760	506.49170743826	158
6	4773	508.07591860979	159
6	4788	511.36764771365	160
6	4802	514.67052946858	161
6	4807	515.3605903299	162
6	4818	518.58089600167	163
6	4838	520.72839694621	164
6	4875	528.18114520926	165
6	4899	536.01827060665	166
6	4918	540.16447797166	167
6	4927	541.97927752569	168
6	4941	547.73125776147	169
6	5077	552.49092874876	170
6	5090	559.11468330598	171
6	5100	562.14606149415	172
6	5133	572.02409685104	173
6	5145	573.42418970368	174
6	5160	574.78608207604	175
6	5174	576.8079584509	176
6	5178	576.93006604787	177
6	5191	578.33786933277	178
6	5204	580.04633957035	179
6	5227	586.83656488838	180
6	5256	592.4061493989	181
6	5409	606.9108178872	182
6	5413	606.94681008173	183
6	5426	610.33470170786	184
6	5436	611.92835712087	185
6	5443	612.75094111743	186
6	5464	619.50213211415	187
6	5476	621.10819478695	188
6	5480	621.47708308048	189
6	5497	624.56855155625	190
6	5501	624.690006419	191
6	5539	629.98871177844	192
6	5560	636.56724000176	193
6	5569	637.51865273517	194
6	5588	643.72444253474	195
6	5617	648.54787310799	196
6	5624	648.84439414659	197
6	5765	660.09510398009	198
6	5779	664.3418080517	199
6	5800	670.96841362648	200
6	5845	678.34968435754	201
6	5868	681.51547569762	202
6	5885	685.44818071526	203
6	5900	689.33752852319	204
6	5906	689.69421205906	205
6	5916	690.64035945166	206
6	5934	691.77792410891	207
6	5942	693.05142453969	208
6	6119	705.47790002887	209
6	6147	710.56523160254	210
6	6182	720.06273139145	211
6	6213	726.26913518589	212
6	6241	731.0296020232	213
6	6246	731.11119974269	214
6	6254	732.33208436114	215
6	6305	743.82568443072	216
6	6315	744.6138296259	217
7	160	8.6323445428	1
7	200	16.28533629295	2
7	234	22.3598713938	3
7	344	30.00151245034	4
7	369	33.25909624671	5
7	378	34.43523603668	6
7	392	36.37514593409	7
7	404	37.26692231781	8
7	669	55.01670545958	9
7	677	55.87655633552	10
7	694	58.70920752388	11
7	793	66.50965991257	12
7	817	70.28254248997	13
7	877	77.2477105848	14
7	962	85.64580000116	15
7	969	86.13645679377	16
7	974	87.33475689057	17
7	1047	94.79953732089	18
7	1065	96.30128795574	19
7	1075	96.77779735991	20
7	1083	97.01927122058	21
7	1224	104.60030521493	22
7	1235	105.29325633187	23
7	1353	116.27121742176	24
7	1388	118.98447982598	25
7	1396	119.34250936721	26
7	1513	129.83970819916	27
7	1517	130.10098031832	28
7	1561	135.37147660218	29
7	1579	137.46236596935	30
7	1625	141.87616750891	31
7	1649	144.88691284534	32
7	1671	147.6375164866	33
7	1681	148.46984147503	34
7	1696	149.39909063805	35
7	1710	150.30538923682	36
7	1841	154.29452181192	37
7	1853	154.69399936025	38
7	1857	155.36340432068	39
7	1932	160.6432714662	40
7	1954	163.06382210287	41
7	1958	163.9767011905	42
7	1991	168.76401065144	43
7	2011	169.61793524622	44
7	2112	180.73016605633	45
7	2127	181.98667369545	46
7	2175	185.6326182023	47
7	2179	185.89140555184	48
7	2210	190.28753701591	49
7	2214	190.43296151506	50
7	2228	192.10437634787	51
7	2255	194.39970667999	52
7	2263	194.98180860763	53
7	2276	195.98582103027	54
7	2286	197.12254588783	55
7	2308	198.30313080914	56
7	2455	205.52959343012	57
7	2465	205.9561951353	58
7	2496	208.80776667912	59
7	2516	209.83649185037	60
7	2551	212.25369412782	61
7	2575	214.80587414227	62
7	2593	217.90132960634	63
7	2610	219.99530328197	64
7	2625	221.73452067299	65
7	2630	221.97230895146	66
7	2637	222.20015615402	67
7	2657	223.2673282741	68
7	2665	223.8167411378	69
7	2686	225.44612326952	70
7	2690	225.47076872427	71
7	2702	226.29512130743	72
7	2706	226.61298644906	73
7	2745	230.0411026655	74
7	2764	233.7838182167	75
7	2793	236.55292613528	76
7	2864	242.42586947456	77
7	2890	244.04355640467	78
7	2901	244.47175087751	79
7	2910	245.49761616268	80
7	2914	245.90103575009	81
7	2931	247.44316882048	82
7	2936	247.63336488738	83
7	2947	250.5758888191	84
7	3055	252.26325999074	85
7	3059	252.9087910217	86
7	3108	256.65205160266	87
7	3126	257.63432275381	88
7	3130	257.82252727486	89
7	3144	258.93076372444	90
7	3167	261.32489601246	91
7	3204	263.36914306033	92
7	3230	267.46709634959	93
7	3238	268.46986086168	94
7	3278	272.55612018462	95
7	3297	275.57471058275	96
7	3308	276.14818200346	97
7	3313	277.21623708125	98
7	3326	278.3711283863	99
7	3336	279.19206049751	100
7	3340	279.23582152639	101
7	3369	283.23660869845	102
7	3374	283.81258087875	103
7	3390	284.95122177004	104
7	3432	289.82929237762	105
7	3440	290.96468098791	106
7	3461	297.52320236005	107
7	3465	297.63830884457	108
7	3480	300.73501859617	109
7	3575	301.01977350651	110
7	3592	305.83105152918	111
7	3614	308.49222362137	112
7	3622	309.36880532014	113
7	3630	310.53445750607	114
7	3666	322.43735342033	115
7	3673	322.87477550973	116
7	3677	323.18529540084	117
7	3707	331.16472954971	118
7	3744	348.17345970523	119
7	3850	351.71185659354	120
7	3858	354.09480815051	121
7	3866	355.44498553443	122
7	3886	359.10203946153	123
7	3914	365.14074781889	124
7	3950	374.19398397188	125
7	3968	380.4315926518	126
7	3972	380.64110423498	127
7	3992	387.97745662955	128
7	4015	394.71483873314	129
7	4029	399.43428904497	130
7	4136	401.74163247206	131
7	4142	402.42734919943	132
7	4151	403.41039847293	133
7	4160	404.57800428492	134
7	4179	406.90740609522	135
7	4188	407.85163217285	136
7	4197	408.31688489294	137
7	4209	409.37621813843	138
7	4213	409.90070024798	139
7	4236	418.60647792985	140
7	4259	424.95206011208	141
7	4283	430.28432273985	142
7	4292	432.67806273014	143
7	4316	437.60273137305	144
7	4346	445.96333696838	145
7	4468	455.20590390888	146
7	4498	464.68861294775	147
7	4516	469.25652987538	148
7	4526	473.03787456187	149
7	4542	477.51312616842	150
7	4551	479.21123733374	151
7	4568	482.19923676284	152
7	4592	487.11309758657	153
7	4615	494.16333358212	154
7	4626	498.07422200443	155
7	4640	500.97807448921	156
7	4739	502.04948852594	157
7	4760	506.49170743826	158
7	4773	508.07591860979	159
7	4788	511.36764771365	160
7	4802	514.67052946858	161
7	4807	515.3605903299	162
7	4818	518.58089600167	163
7	4838	520.72839694621	164
7	4875	528.18114520926	165
7	4899	536.01827060665	166
7	4918	540.16447797166	167
7	4927	541.97927752569	168
7	4941	547.73125776147	169
7	5077	552.49092874876	170
7	5090	559.11468330598	171
7	5100	562.14606149415	172
7	5133	572.02409685104	173
7	5145	573.42418970368	174
7	5160	574.78608207604	175
7	5174	576.8079584509	176
7	5178	576.93006604787	177
7	5191	578.33786933277	178
7	5204	580.04633957035	179
7	5227	586.83656488838	180
7	5256	592.4061493989	181
7	5409	606.9108178872	182
7	5413	606.94681008173	183
7	5426	610.33470170786	184
7	5436	611.92835712087	185
7	5443	612.75094111743	186
7	5464	619.50213211415	187
7	5476	621.10819478695	188
7	5480	621.47708308048	189
7	5497	624.56855155625	190
7	5501	624.690006419	191
7	5539	629.98871177844	192
7	5560	636.56724000176	193
7	5569	637.51865273517	194
7	5588	643.72444253474	195
7	5617	648.54787310799	196
7	5624	648.84439414659	197
7	5765	660.09510398009	198
7	5779	664.3418080517	199
7	5800	670.96841362648	200
7	5845	678.34968435754	201
7	5868	681.51547569762	202
7	5885	685.44818071526	203
7	5900	689.33752852319	204
7	5906	689.69421205906	205
7	5916	690.64035945166	206
7	5934	691.77792410891	207
7	5942	693.05142453969	208
7	6119	705.47790002887	209
7	6147	710.56523160254	210
7	6182	720.06273139145	211
7	6213	726.26913518589	212
7	6241	731.0296020232	213
7	6246	731.11119974269	214
7	6254	732.33208436114	215
7	6305	743.82568443072	216
7	6315	744.6138296259	217
8	160	8.6323445428	1
8	200	16.28533629295	2
8	234	22.3598713938	3
8	344	30.00151245034	4
8	369	33.25909624671	5
8	378	34.43523603668	6
8	392	36.37514593409	7
8	404	37.26692231781	8
8	669	55.01670545958	9
8	677	55.87655633552	10
8	694	58.70920752388	11
8	793	66.50965991257	12
8	817	70.28254248997	13
8	877	77.2477105848	14
8	962	85.64580000116	15
8	969	86.13645679377	16
8	974	87.33475689057	17
8	1047	94.79953732089	18
8	1065	96.30128795574	19
8	1075	96.77779735991	20
8	1083	97.01927122058	21
8	1224	104.60030521493	22
8	1235	105.29325633187	23
8	1353	116.27121742176	24
8	1388	118.98447982598	25
8	1396	119.34250936721	26
8	1513	129.83970819916	27
8	1517	130.10098031832	28
8	1561	135.37147660218	29
8	1579	137.46236596935	30
8	1625	141.87616750891	31
8	1649	144.88691284534	32
8	1671	147.6375164866	33
8	1681	148.46984147503	34
8	1696	149.39909063805	35
8	1710	150.30538923682	36
8	1841	154.29452181192	37
8	1853	154.69399936025	38
8	1857	155.36340432068	39
8	1932	160.6432714662	40
8	1954	163.06382210287	41
8	1958	163.9767011905	42
8	1991	168.76401065144	43
8	2011	169.61793524622	44
8	2112	180.73016605633	45
8	2127	181.98667369545	46
8	2175	185.6326182023	47
8	2179	185.89140555184	48
8	2210	190.28753701591	49
8	2214	190.43296151506	50
8	2228	192.10437634787	51
8	2255	194.39970667999	52
8	2263	194.98180860763	53
8	2276	195.98582103027	54
8	2286	197.12254588783	55
8	2308	198.30313080914	56
8	2455	205.52959343012	57
8	2465	205.9561951353	58
8	2496	208.80776667912	59
8	2516	209.83649185037	60
8	2551	212.25369412782	61
8	2575	214.80587414227	62
8	2593	217.90132960634	63
8	2610	219.99530328197	64
8	2625	221.73452067299	65
8	2630	221.97230895146	66
8	2637	222.20015615402	67
8	2657	223.2673282741	68
8	2665	223.8167411378	69
8	2686	225.44612326952	70
8	2690	225.47076872427	71
8	2702	226.29512130743	72
8	2706	226.61298644906	73
8	2745	230.0411026655	74
8	2764	233.7838182167	75
8	2793	236.55292613528	76
8	2864	242.42586947456	77
8	2890	244.04355640467	78
8	2901	244.47175087751	79
8	2910	245.49761616268	80
8	2914	245.90103575009	81
8	2931	247.44316882048	82
8	2936	247.63336488738	83
8	2947	250.5758888191	84
8	3055	252.26325999074	85
8	3059	252.9087910217	86
8	3108	256.65205160266	87
8	3126	257.63432275381	88
8	3130	257.82252727486	89
8	3144	258.93076372444	90
8	3167	261.32489601246	91
8	3204	263.36914306033	92
8	3230	267.46709634959	93
8	3238	268.46986086168	94
8	3278	272.55612018462	95
8	3297	275.57471058275	96
8	3308	276.14818200346	97
8	3313	277.21623708125	98
8	3326	278.3711283863	99
8	3336	279.19206049751	100
8	3340	279.23582152639	101
8	3369	283.23660869845	102
8	3374	283.81258087875	103
8	3390	284.95122177004	104
8	3432	289.82929237762	105
8	3440	290.96468098791	106
8	3461	297.52320236005	107
8	3465	297.63830884457	108
8	3480	300.73501859617	109
8	3575	301.01977350651	110
8	3592	305.83105152918	111
8	3614	308.49222362137	112
8	3622	309.36880532014	113
8	3630	310.53445750607	114
8	3666	322.43735342033	115
8	3673	322.87477550973	116
8	3677	323.18529540084	117
8	3707	331.16472954971	118
8	3744	348.17345970523	119
8	3850	351.71185659354	120
8	3858	354.09480815051	121
8	3866	355.44498553443	122
8	3886	359.10203946153	123
8	3914	365.14074781889	124
8	3950	374.19398397188	125
8	3968	380.4315926518	126
8	3972	380.64110423498	127
8	3992	387.97745662955	128
8	4015	394.71483873314	129
8	4029	399.43428904497	130
8	4136	401.74163247206	131
8	4142	402.42734919943	132
8	4151	403.41039847293	133
8	4160	404.57800428492	134
8	4179	406.90740609522	135
8	4188	407.85163217285	136
8	4197	408.31688489294	137
8	4209	409.37621813843	138
8	4213	409.90070024798	139
8	4236	418.60647792985	140
8	4259	424.95206011208	141
8	4283	430.28432273985	142
8	4292	432.67806273014	143
8	4316	437.60273137305	144
8	4346	445.96333696838	145
8	4468	455.20590390888	146
8	4498	464.68861294775	147
8	4516	469.25652987538	148
8	4526	473.03787456187	149
8	4542	477.51312616842	150
8	4551	479.21123733374	151
8	4568	482.19923676284	152
8	4592	487.11309758657	153
8	4615	494.16333358212	154
8	4626	498.07422200443	155
8	4640	500.97807448921	156
8	4739	502.04948852594	157
8	4760	506.49170743826	158
8	4773	508.07591860979	159
8	4788	511.36764771365	160
8	4802	514.67052946858	161
8	4807	515.3605903299	162
8	4818	518.58089600167	163
8	4838	520.72839694621	164
8	4875	528.18114520926	165
8	4899	536.01827060665	166
8	4918	540.16447797166	167
8	4927	541.97927752569	168
8	4941	547.73125776147	169
8	5077	552.49092874876	170
8	5090	559.11468330598	171
8	5100	562.14606149415	172
8	5133	572.02409685104	173
8	5145	573.42418970368	174
8	5160	574.78608207604	175
8	5174	576.8079584509	176
8	5178	576.93006604787	177
8	5191	578.33786933277	178
8	5204	580.04633957035	179
8	5227	586.83656488838	180
8	5256	592.4061493989	181
8	5409	606.9108178872	182
8	5413	606.94681008173	183
8	5426	610.33470170786	184
8	5436	611.92835712087	185
8	5443	612.75094111743	186
8	5464	619.50213211415	187
8	5476	621.10819478695	188
8	5480	621.47708308048	189
8	5497	624.56855155625	190
8	5501	624.690006419	191
8	5539	629.98871177844	192
8	5560	636.56724000176	193
8	5569	637.51865273517	194
8	5588	643.72444253474	195
8	5617	648.54787310799	196
8	5624	648.84439414659	197
8	5765	660.09510398009	198
8	5779	664.3418080517	199
8	5800	670.96841362648	200
8	5845	678.34968435754	201
8	5868	681.51547569762	202
8	5885	685.44818071526	203
8	5900	689.33752852319	204
8	5906	689.69421205906	205
8	5916	690.64035945166	206
8	5934	691.77792410891	207
8	5942	693.05142453969	208
8	6119	705.47790002887	209
8	6147	710.56523160254	210
8	6182	720.06273139145	211
8	6213	726.26913518589	212
8	6241	731.0296020232	213
8	6246	731.11119974269	214
8	6254	732.33208436114	215
8	6305	743.82568443072	216
8	6315	744.6138296259	217
9	199	16.28533629295	180
9	377	34.43523603668	180
9	1560	135.37147660218	180
9	1670	147.6375164866	180
9	2178	185.89140555184	180
9	2495	208.80776667912	180
9	2636	222.20015615402	180
9	2863	242.42586947456	180
9	3229	267.46709634959	180
9	3373	283.81258087875	180
9	4759	506.49170743826	180
10	199	16.28533629295	15.28533629295
10	377	34.43523603668	33.43523603668
10	1560	135.37147660218	134.37147660218
10	1670	147.6375164866	146.6375164866
10	2178	185.89140555184	184.89140555184
10	2495	208.80776667912	207.80776667912
10	2636	222.20015615402	221.20015615402
10	2863	242.42586947456	241.42586947456
10	3229	267.46709634959	266.46709634959
10	3373	283.81258087875	282.81258087875
10	4759	506.49170743826	505.49170743826
11	199	16.28533629295	15.28533629295
12	233	22.3598713938	180
12	391	36.37514593409	180
12	693	58.70920752388	180
12	1082	97.01927122058	180
12	1578	137.46236596935	180
12	3991	387.97745662955	180
12	4258	424.95206011208	180
12	4345	445.96333696838	180
12	4515	469.25652987538	180
12	4639	500.97807448921	180
13	233	22.3598713938	21.3598713938
13	391	36.37514593409	35.37514593409
13	693	58.70920752388	57.70920752388
13	1082	97.01927122058	96.01927122058
13	1578	137.46236596935	136.46236596935
13	3991	387.97745662955	386.97745662955
13	4258	424.95206011208	423.95206011208
13	4345	445.96333696838	444.96333696838
13	4515	469.25652987538	468.25652987538
13	4639	500.97807448921	499.97807448921
14	233	22.3598713938	21.3598713938
15	343	30.00151245034	180
15	961	85.64580000116	180
15	1074	96.77779735991	180
15	1395	119.34250936721	180
15	1516	130.10098031832	180
15	1852	154.69399936025	180
15	1990	168.76401065144	180
15	2174	185.6326182023	180
15	2275	195.98582103027	180
15	2515	209.83649185037	180
15	2689	225.47076872427	180
15	4196	408.31688489294	180
16	343	30.00151245034	29.00151245034
16	961	85.64580000116	84.64580000116
16	1074	96.77779735991	95.77779735991
16	1395	119.34250936721	118.34250936721
16	1516	130.10098031832	129.10098031832
16	1852	154.69399936025	153.69399936025
16	1990	168.76401065144	167.76401065144
16	2174	185.6326182023	184.6326182023
16	2275	195.98582103027	194.98582103027
16	2515	209.83649185037	208.83649185037
16	2689	225.47076872427	224.47076872427
16	4196	408.31688489294	407.31688489294
17	343	30.00151245034	29.00151245034
18	368	33.25909624671	180
18	2629	221.97230895146	180
18	4135	401.74163247206	180
18	5764	660.09510398009	180
19	368	33.25909624671	32.25909624671
19	2629	221.97230895146	220.97230895146
19	4135	401.74163247206	400.74163247206
19	5764	660.09510398009	659.09510398009
20	368	33.25909624671	32.25909624671
21	403	37.26692231781	180
21	668	55.01670545958	180
21	792	66.50965991257	180
21	876	77.2477105848	180
21	1064	96.30128795574	180
21	1352	116.27121742176	180
21	1512	129.83970819916	180
21	1680	148.46984147503	180
21	2010	169.61793524622	180
21	2254	194.39970667999	180
21	2454	205.52959343012	180
21	2656	223.2673282741	180
21	3129	257.82252727486	180
21	3672	322.87477550973	180
21	4187	407.85163217285	180
22	403	37.26692231781	36.26692231781
22	668	55.01670545958	54.01670545958
22	792	66.50965991257	65.50965991257
22	876	77.2477105848	76.2477105848
22	1064	96.30128795574	95.30128795574
22	1352	116.27121742176	115.27121742176
22	1512	129.83970819916	128.83970819916
22	1680	148.46984147503	147.46984147503
22	2010	169.61793524622	168.61793524622
22	2254	194.39970667999	193.39970667999
22	2454	205.52959343012	204.52959343012
22	2656	223.2673282741	222.2673282741
22	3129	257.82252727486	256.82252727486
22	3672	322.87477550973	321.87477550973
22	4187	407.85163217285	406.85163217285
23	403	37.26692231781	36.26692231781
24	676	55.87655633552	180
24	1957	163.9767011905	180
24	2946	250.5758888191	180
24	4497	464.68861294775	180
25	676	55.87655633552	54.87655633552
25	1957	163.9767011905	162.9767011905
25	2946	250.5758888191	249.5758888191
25	4497	464.68861294775	463.68861294775
26	676	55.87655633552	54.87655633552
27	816	70.28254248997	180
27	1046	94.79953732089	180
27	3913	365.14074781889	180
27	4541	477.51312616842	180
27	5408	606.9108178872	180
27	5479	621.47708308048	180
28	816	70.28254248997	69.28254248997
28	1046	94.79953732089	93.79953732089
28	3913	365.14074781889	364.14074781889
28	4541	477.51312616842	476.51312616842
28	5408	606.9108178872	605.9108178872
28	5479	621.47708308048	620.47708308048
29	816	70.28254248997	69.28254248997
30	968	86.13645679377	180
30	2227	192.10437634787	180
30	2930	247.44316882048	180
30	3389	284.95122177004	180
30	3865	355.44498553443	180
30	3971	380.64110423498	180
30	4591	487.11309758657	180
30	4801	514.67052946858	180
30	5475	621.10819478695	180
30	5933	691.77792410891	180
30	6240	731.0296020232	180
31	968	86.13645679377	85.13645679377
31	2227	192.10437634787	191.10437634787
31	2930	247.44316882048	246.44316882048
31	3389	284.95122177004	283.95122177004
31	3865	355.44498553443	354.44498553443
31	3971	380.64110423498	379.64110423498
31	4591	487.11309758657	486.11309758657
31	4801	514.67052946858	513.67052946858
31	5475	621.10819478695	620.10819478695
31	5933	691.77792410891	690.77792410891
31	6240	731.0296020232	730.0296020232
32	968	86.13645679377	85.13645679377
33	1223	104.60030521493	180
33	1709	150.30538923682	180
33	2307	198.30313080914	180
33	2609	219.99530328197	180
33	4159	404.57800428492	180
33	4625	498.07422200443	180
34	1223	104.60030521493	103.60030521493
34	1709	150.30538923682	149.30538923682
34	2307	198.30313080914	197.30313080914
34	2609	219.99530328197	218.99530328197
34	4159	404.57800428492	403.57800428492
34	4625	498.07422200443	497.07422200443
35	1223	104.60030521493	103.60030521493
36	1234	105.29325633187	180
36	2209	190.28753701591	180
36	2574	214.80587414227	180
36	2763	233.7838182167	180
36	2935	247.63336488738	180
36	3125	257.63432275381	180
36	3307	276.14818200346	180
36	3431	289.82929237762	180
36	3676	323.18529540084	180
36	3849	351.71185659354	180
36	3967	380.4315926518	180
37	1234	105.29325633187	104.29325633187
37	2209	190.28753701591	189.28753701591
37	2574	214.80587414227	213.80587414227
37	2763	233.7838182167	232.7838182167
37	2935	247.63336488738	246.63336488738
37	3125	257.63432275381	256.63432275381
37	3307	276.14818200346	275.14818200346
37	3431	289.82929237762	288.82929237762
37	3676	323.18529540084	322.18529540084
37	3849	351.71185659354	350.71185659354
37	3967	380.4315926518	379.4315926518
38	1234	105.29325633187	104.29325633187
39	1387	118.98447982598	180
39	2664	223.8167411378	180
39	3591	305.83105152918	180
39	3665	322.43735342033	180
40	1387	118.98447982598	117.98447982598
40	2664	223.8167411378	222.8167411378
40	3591	305.83105152918	304.83105152918
40	3665	322.43735342033	321.43735342033
41	1387	118.98447982598	117.98447982598
42	1624	141.87616750891	180
42	1953	163.06382210287	180
42	2111	180.73016605633	180
42	2685	225.44612326952	180
42	2889	244.04355640467	180
42	3237	268.46986086168	180
42	5076	552.49092874876	180
42	5144	573.42418970368	180
42	5500	624.690006419	180
42	6253	732.33208436114	180
43	1624	141.87616750891	140.87616750891
43	1953	163.06382210287	162.06382210287
43	2111	180.73016605633	179.73016605633
43	2685	225.44612326952	224.44612326952
43	2889	244.04355640467	243.04355640467
43	3237	268.46986086168	267.46986086168
43	5076	552.49092874876	551.49092874876
43	5144	573.42418970368	572.42418970368
43	5500	624.690006419	623.690006419
43	6253	732.33208436114	731.33208436114
44	1624	141.87616750891	140.87616750891
45	1648	144.88691284534	180
45	3464	297.63830884457	180
45	3885	359.10203946153	180
45	3949	374.19398397188	180
45	4178	406.90740609522	180
45	4917	540.16447797166	180
45	5132	572.02409685104	180
45	5435	611.92835712087	180
45	5905	689.69421205906	180
46	1648	144.88691284534	143.88691284534
46	3464	297.63830884457	296.63830884457
46	3885	359.10203946153	358.10203946153
46	3949	374.19398397188	373.19398397188
46	4178	406.90740609522	405.90740609522
46	4917	540.16447797166	539.16447797166
46	5132	572.02409685104	571.02409685104
46	5435	611.92835712087	610.92835712087
46	5905	689.69421205906	688.69421205906
47	1648	144.88691284534	143.88691284534
48	1695	149.39909063805	180
48	3054	252.26325999074	180
48	3296	275.57471058275	180
48	4150	403.41039847293	180
48	4874	528.18114520926	180
48	5226	586.83656488838	180
48	5559	636.56724000176	180
48	5623	648.84439414659	180
49	1695	149.39909063805	148.39909063805
49	3054	252.26325999074	251.26325999074
49	3296	275.57471058275	274.57471058275
49	4150	403.41039847293	402.41039847293
49	4874	528.18114520926	527.18114520926
49	5226	586.83656488838	585.83656488838
49	5559	636.56724000176	635.56724000176
49	5623	648.84439414659	647.84439414659
50	1695	149.39909063805	148.39909063805
51	1840	154.29452181192	180
51	2592	217.90132960634	180
51	2792	236.55292613528	180
51	3166	261.32489601246	180
51	3613	308.49222362137	180
52	1840	154.29452181192	153.29452181192
52	2592	217.90132960634	216.90132960634
52	2792	236.55292613528	235.55292613528
52	3166	261.32489601246	260.32489601246
52	3613	308.49222362137	307.49222362137
53	1840	154.29452181192	153.29452181192
54	1856	155.36340432068	180
54	3339	279.23582152639	180
54	4141	402.42734919943	180
54	4315	437.60273137305	180
54	5538	629.98871177844	180
55	1856	155.36340432068	154.36340432068
55	3339	279.23582152639	278.23582152639
55	4141	402.42734919943	401.42734919943
55	4315	437.60273137305	436.60273137305
55	5538	629.98871177844	628.98871177844
56	1856	155.36340432068	154.36340432068
57	1931	160.6432714662	180
57	2126	181.98667369545	180
57	2701	226.29512130743	180
57	2900	244.47175087751	180
57	3143	258.93076372444	180
57	3368	283.23660869845	180
57	3574	301.01977350651	180
57	3857	354.09480815051	180
58	1931	160.6432714662	159.6432714662
58	2126	181.98667369545	180.98667369545
58	2701	226.29512130743	225.29512130743
58	2900	244.47175087751	243.47175087751
58	3143	258.93076372444	257.93076372444
58	3368	283.23660869845	282.23660869845
58	3574	301.01977350651	300.01977350651
58	3857	354.09480815051	353.09480815051
59	1931	160.6432714662	159.6432714662
60	2213	190.43296151506	180
60	2705	226.61298644906	180
60	3277	272.55612018462	180
60	3621	309.36880532014	180
60	4212	409.90070024798	180
60	4567	482.19923676284	180
60	4614	494.16333358212	180
60	4817	518.58089600167	180
60	4926	541.97927752569	180
60	5099	562.14606149415	180
60	5412	606.94681008173	180
60	5463	619.50213211415	180
60	5587	643.72444253474	180
60	5778	664.3418080517	180
60	5844	678.34968435754	180
60	5899	689.33752852319	180
61	2213	190.43296151506	189.43296151506
61	2705	226.61298644906	225.61298644906
61	3277	272.55612018462	271.55612018462
61	3621	309.36880532014	308.36880532014
61	4212	409.90070024798	408.90070024798
61	4567	482.19923676284	481.19923676284
61	4614	494.16333358212	493.16333358212
61	4817	518.58089600167	517.58089600167
61	4926	541.97927752569	540.97927752569
61	5099	562.14606149415	561.14606149415
61	5412	606.94681008173	605.94681008173
61	5463	619.50213211415	618.50213211415
61	5587	643.72444253474	642.72444253474
61	5778	664.3418080517	663.3418080517
61	5844	678.34968435754	677.34968435754
61	5899	689.33752852319	688.33752852319
62	2213	190.43296151506	189.43296151506
63	2262	194.98180860763	180
63	2464	205.9561951353	180
63	2624	221.73452067299	180
63	3107	256.65205160266	180
63	4014	394.71483873314	180
63	4467	455.20590390888	180
63	6181	720.06273139145	180
64	2262	194.98180860763	193.98180860763
64	2464	205.9561951353	204.9561951353
64	2624	221.73452067299	220.73452067299
64	3107	256.65205160266	255.65205160266
64	4014	394.71483873314	393.71483873314
64	4467	455.20590390888	454.20590390888
64	6181	720.06273139145	719.06273139145
65	2262	194.98180860763	193.98180860763
66	2285	197.12254588783	180
66	4235	418.60647792985	180
66	4738	502.04948852594	180
67	2285	197.12254588783	196.12254588783
67	4235	418.60647792985	417.60647792985
67	4738	502.04948852594	501.04948852594
68	2285	197.12254588783	196.12254588783
69	2550	212.25369412782	180
69	3439	290.96468098791	180
69	4028	399.43428904497	180
69	5173	576.8079584509	180
69	5425	610.33470170786	180
70	2550	212.25369412782	211.25369412782
70	3439	290.96468098791	289.96468098791
70	4028	399.43428904497	398.43428904497
70	5173	576.8079584509	575.8079584509
70	5425	610.33470170786	609.33470170786
71	2550	212.25369412782	211.25369412782
72	2744	230.0411026655	180
72	4772	508.07591860979	180
73	2744	230.0411026655	229.0411026655
73	4772	508.07591860979	507.07591860979
74	2744	230.0411026655	229.0411026655
75	2909	245.49761616268	180
75	3203	263.36914306033	180
75	3335	279.19206049751	180
75	3629	310.53445750607	180
75	3706	331.16472954971	180
75	5799	670.96841362648	180
75	5884	685.44818071526	180
75	6118	705.47790002887	180
75	6304	743.82568443072	180
76	2909	245.49761616268	244.49761616268
76	3203	263.36914306033	262.36914306033
76	3335	279.19206049751	278.19206049751
76	3629	310.53445750607	309.53445750607
76	3706	331.16472954971	330.16472954971
76	5799	670.96841362648	669.96841362648
76	5884	685.44818071526	684.44818071526
76	6118	705.47790002887	704.47790002887
76	6304	743.82568443072	742.82568443072
77	2909	245.49761616268	244.49761616268
78	2913	245.90103575009	180
78	3743	348.17345970523	180
78	4550	479.21123733374	180
79	2913	245.90103575009	244.90103575009
79	3743	348.17345970523	347.17345970523
79	4550	479.21123733374	478.21123733374
80	2913	245.90103575009	244.90103575009
81	3312	277.21623708125	180
81	4282	430.28432273985	180
81	4806	515.3605903299	180
81	5496	624.56855155625	180
81	5616	648.54787310799	180
81	5867	681.51547569762	180
81	5941	693.05142453969	180
81	6245	731.11119974269	180
82	3312	277.21623708125	276.21623708125
82	4282	430.28432273985	429.28432273985
82	4806	515.3605903299	514.3605903299
82	5496	624.56855155625	623.56855155625
82	5616	648.54787310799	647.54787310799
82	5867	681.51547569762	680.51547569762
82	5941	693.05142453969	692.05142453969
82	6245	731.11119974269	730.11119974269
83	3312	277.21623708125	276.21623708125
84	3325	278.3711283863	180
84	4208	409.37621813843	180
84	5177	576.93006604787	180
85	3325	278.3711283863	277.3711283863
85	4208	409.37621813843	408.37621813843
85	5177	576.93006604787	575.93006604787
86	3325	278.3711283863	277.3711283863
87	3460	297.52320236005	180
87	4291	432.67806273014	180
87	4525	473.03787456187	180
87	4787	511.36764771365	180
87	5089	559.11468330598	180
87	5190	578.33786933277	180
87	5568	637.51865273517	180
87	5915	690.64035945166	180
87	6146	710.56523160254	180
87	6314	744.6138296259	180
88	3460	297.52320236005	296.52320236005
88	4291	432.67806273014	431.67806273014
88	4525	473.03787456187	472.03787456187
88	4787	511.36764771365	510.36764771365
88	5089	559.11468330598	558.11468330598
88	5190	578.33786933277	577.33786933277
88	5568	637.51865273517	636.51865273517
88	5915	690.64035945166	689.64035945166
88	6146	710.56523160254	709.56523160254
88	6314	744.6138296259	743.6138296259
89	3460	297.52320236005	296.52320236005
90	3479	300.73501859617	180
90	4837	520.72839694621	180
90	4940	547.73125776147	180
90	5159	574.78608207604	180
90	5255	592.4061493989	180
90	5442	612.75094111743	180
90	6212	726.26913518589	180
91	3479	300.73501859617	299.73501859617
91	4837	520.72839694621	519.72839694621
91	4940	547.73125776147	546.73125776147
91	5159	574.78608207604	573.78608207604
91	5255	592.4061493989	591.4061493989
91	5442	612.75094111743	611.75094111743
91	6212	726.26913518589	725.26913518589
92	3479	300.73501859617	299.73501859617

