file 77796 1780691895                                           
version 3
run General-6-20260605-22:38:11-1048198
attr configname General
attr datetime 20260605-22:38:11
attr datetimef 20260605-223811
attr experiment General
attr inifile Test_MLModel_1.ini
attr iterationvars $0=27456
attr iterationvarsd 27456
attr iterationvarsf 27456-
attr measurement $0=27456
attr network Florasat.Test_Individual.Florasat_Individual_Sats
attr processid 1048198
attr repetition 6
attr replication #6
attr resultdir results
attr runnumber 6
attr seedset 6
config *.satellite[0].NoradModule.raan 185
config *.stats_altitude 670
config *.stats_raan 185
config image-path ../../images:../../../../samples/inet4.5_2/images
config network Florasat.Test_Individual.Florasat_Individual_Sats
config rng-class cMersenneTwister
config *.**.result-recording-modes -
config **.result-recording-modes -
config **.statistic-recording true
config **.scalar-recording true
config **.vector-recording true
config **.vector-record-eventnumbers true
config repeat 10
config seed-0-mt 27456
config sim-time-limit 749s
config simtime-resolution -11
config **.stats_altitude 670
config **.stats_raan 185
config *.radioMedium.backgroundNoise.power -110dBm
config *.radioMedium.mediumLimitCache.centerFrequency 868MHz
config *.radioMedium.mediumLimitCache.maxTransmissionDuration 4s
config *.radioMedium.mediumLimitCache.minInterferenceTime 0s
config **.numSatellites 1
config *.satellite[*].mobilityType "\"Sat_Mob_SatelliteMobility_Standalone\""
config *.satellite[*].noradModuleType "\"Sat_Mob_NoradA\""
config **.satellite[*].**.initFromDisplayString false
config *.satellite[*].mobility.faceForward true
config *.satellite[*].mobility.updateInterval 20s
config *.satellite[*].NoradModule.satName "\"FLoRaSat\""
config *.satellite[*].NoradModule.satIndex -1
config *.satellite[*].NoradModule.baseYear 20
config *.satellite[*].NoradModule.baseDay 1.5
config *.satellite[*].NoradModule.planes 1
config *.satellite[*].NoradModule.satPerPlane 1
config *.satellite[*].NoradModule.eccentricity 0.000001
config *.satellite[*].NoradModule.inclination 98
config *.satellite[*].NoradModule.altitude 670
config *.satellite[0].NoradModule.raan 185
config *.satellite[0].NoradModule.meanAnomaly 195
config *.satellite[*].phyDSL.radio.receiver.enableCollisionOverlap true
config *.satellite[*].phyDSL.radio.receiver.minCollisionOverlap 0s
config *.satellite[*].phyDSL.radio.antenna.typename ConstantGainAntenna
config *.satellite[*].phyDSL.radio.antenna.mobilityModule "\"^.^.^.mobility\""
config *.satellite[*].phyISL.radio.antenna.mobilityModule "\"^.^.^.mobility\""
config *.satellite[*].phyGSL.radio.antenna.mobilityModule "\"^.^.^.mobility\""
config *.satellite[*].phyDSL.radio.antenna.gain 12dB
config *.satellite[*].net.routingType "\"Null_Routing\""
config *.terminal[*].net.routingType "\"Ter_Null_Routing\""
config *.**.numGroundLinks 40
config *.satellite[*].**.interfaceTableModule "\"\""
config **.radioMedium.typename LoRaMedium
config **.radioMedium.analogModel.typename LoRaAnalogModel
config **.intraPlaneIslDisabled false
config **.interPlaneIslDisabled false
config **.numTerminals 30
config *.terminal[*].phy.radio.antenna.mobilityModule "\"^.^.^.mob\""
config *.terminal[*].dlk.mac.interfaceTableModule "\"\""
config *.terminal[*].dlk.energySourceModule "\"\""
config *.terminal[*].dlk.mac.LoRaTP "intuniform(12, 14)"
config *.terminal[*].dlk.mac.LoRaSF "intuniform(10, 12)"
config *.terminal[*].dlk.mac.useMLBox true
config *.terminal[*].dlk.mac.mlBox.modelPath "\"/home/ylnner/Documents/omnet++/omnetpp-6.3.0/projects/florasat_v4_ult_routing/simulations/Test_Individual/mlmodels/bilstm_scripted.pt\""
config **.numberOfPacketsToSend 0
config **.timeToFirstPacket 1s
config **.timeToNextPacket 50s
config *.terminal[0].mob.radius 0.0
config *.terminal[0].mob.centerLatitude 54.978
config *.terminal[0].mob.centerLongitude -1.617
config *.terminal[1].mob.radius 0.0
config *.terminal[1].mob.centerLatitude 52.630
config *.terminal[1].mob.centerLongitude -1.139
config *.terminal[2].mob.radius 0.0
config *.terminal[2].mob.centerLatitude 52.612
config *.terminal[2].mob.centerLongitude -6.295
config *.terminal[3].mob.radius 0.0
config *.terminal[3].mob.centerLatitude 47.243
config *.terminal[3].mob.centerLongitude 6.024
config *.terminal[4].mob.radius 0.0
config *.terminal[4].mob.centerLatitude 43.610
config *.terminal[4].mob.centerLongitude 3.876
config *.terminal[5].mob.radius 0.0
config *.terminal[5].mob.centerLatitude 49.443
config *.terminal[5].mob.centerLongitude 1.099
config *.terminal[6].mob.radius 0.0
config *.terminal[6].mob.centerLatitude 37.992
config *.terminal[6].mob.centerLongitude -1.130
config *.terminal[7].mob.radius 0.0
config *.terminal[7].mob.centerLatitude 40.965
config *.terminal[7].mob.centerLongitude -5.664
config *.terminal[8].mob.radius 0.0
config *.terminal[8].mob.centerLatitude 40.657
config *.terminal[8].mob.centerLongitude -7.914
config *.terminal[9].mob.radius 0.0
config *.terminal[9].mob.centerLatitude 51.340
config *.terminal[9].mob.centerLongitude 12.373
config *.terminal[10].mob.radius 0.0
config *.terminal[10].mob.centerLatitude 51.455
config *.terminal[10].mob.centerLongitude 7.011
config *.terminal[11].mob.radius 0.0
config *.terminal[11].mob.centerLatitude 49.452
config *.terminal[11].mob.centerLongitude 11.076
config *.terminal[12].mob.radius 0.0
config *.terminal[12].mob.centerLatitude 43.769
config *.terminal[12].mob.centerLongitude 11.255
config *.terminal[13].mob.radius 0.0
config *.terminal[13].mob.centerLatitude 41.117
config *.terminal[13].mob.centerLongitude 16.871
config *.terminal[14].mob.radius 0.0
config *.terminal[14].mob.centerLatitude 52.132
config *.terminal[14].mob.centerLongitude 5.291
config *.terminal[15].mob.radius 0.0
config *.terminal[15].mob.centerLatitude 50.411
config *.terminal[15].mob.centerLongitude 4.444
config *.terminal[16].mob.radius 0.0
config *.terminal[16].mob.centerLatitude 47.559
config *.terminal[16].mob.centerLongitude 7.588
config *.terminal[17].mob.radius 0.0
config *.terminal[17].mob.centerLatitude 55.403
config *.terminal[17].mob.centerLongitude 10.402
config *.terminal[18].mob.radius 0.0
config *.terminal[18].mob.centerLatitude 59.858
config *.terminal[18].mob.centerLongitude 17.638
config *.terminal[19].mob.radius 0.0
config *.terminal[19].mob.centerLatitude 60.451
config *.terminal[19].mob.centerLongitude 22.266
config *.terminal[20].mob.radius 0.0
config *.terminal[20].mob.centerLatitude 56.325
config *.terminal[20].mob.centerLongitude 22.349
config *.terminal[21].mob.radius 0.0
config *.terminal[21].mob.centerLatitude 49.883
config *.terminal[21].mob.centerLongitude 18.568
config *.terminal[22].mob.radius 0.0
config *.terminal[22].mob.centerLatitude 47.531
config *.terminal[22].mob.centerLongitude 21.627
config *.terminal[23].mob.radius 0.0
config *.terminal[23].mob.centerLatitude 44.179
config *.terminal[23].mob.centerLongitude 28.649
config *.terminal[24].mob.radius 0.0
config *.terminal[24].mob.centerLatitude 45.327
config *.terminal[24].mob.centerLongitude 14.442
config *.terminal[25].mob.radius 0.0
config *.terminal[25].mob.centerLatitude 40.694
config *.terminal[25].mob.centerLongitude 30.400
config *.terminal[26].mob.radius 0.0
config *.terminal[26].mob.centerLatitude 37.066
config *.terminal[26].mob.centerLongitude 37.383
config *.terminal[27].mob.radius 0.0
config *.terminal[27].mob.centerLatitude 64.836
config *.terminal[27].mob.centerLongitude -23.708
config *.terminal[28].mob.radius 0.0
config *.terminal[28].mob.centerLatitude 28.099
config *.terminal[28].mob.centerLongitude -17.113
config *.terminal[29].mob.radius 0.0
config *.terminal[29].mob.centerLatitude 34.921
config *.terminal[29].mob.centerLongitude 33.623
config **.numStations 3
config **.numStations 3
config *.station[0].mobility.latitude 55.752
config *.station[0].mobility.longitude 37.616
config *.station[0].cityName "\"Moscow\""
config *.station[0].groundStationId 7
config *.station[0].routerAddr "\"10.0.0.29\""
config *.station[0].serving "\"10.0.0.29\""
config *.station[1].mobility.latitude 28.652
config *.station[1].mobility.longitude 77.231
config *.station[1].cityName "\"Delhi\""
config *.station[1].groundStationId 11
config *.station[1].routerAddr "\"10.0.0.45\""
config *.station[1].serving "\"10.0.0.45\""
config *.station[2].mobility.latitude 25.35
config *.station[2].mobility.longitude 51.24
config *.station[2].cityName "\"Katar\""
config *.station[2].groundStationId 19
config *.station[2].routerAddr "\"10.0.0.77\""
config *.station[2].serving "\"10.0.0.77\""
config *.visualizer.canvasVisualizer.mediumVisualizer.typename ""
config *.visualizer.*.radioVisualizer.displayAntennaLobes true
config *.visualizer.*.dataLinkVisualizer.displayLinks true
config *.visualizer.*.mobilityVisualizer.displayMovementTrails true
config *.visualizer.*.mobilityVisualizer.movementTrailLineWidth 1
config *.visualizer.*.mobilityVisualizer.trailLength 3000
config **.ttxStart_max 30s
config **.ttxIdle_min 10s
config **.ttxIdle_max 25s
config **.Ntw 2
config **.Ntx 45
config **.ttwDuration 550s

vector 0 Florasat_Individual_Sats.satellite[0].dlkDSL.mac "Satellite Position when Repetition Received" ETV
vector 1 Florasat_Individual_Sats.satellite[0].dlkDSL.mac "Repetition Position for Node 283 at Satellite" ETV
vector 2 Florasat_Individual_Sats.satellite[0].dlkDSL.mac "All Nodes Repetition Generation Delay at Satellite" ETV
vector 3 Florasat_Individual_Sats.satellite[0].dlkDSL.mac "Repetition Generation Delay for Node 283 at Satellite" ETV
vector 4 Florasat_Individual_Sats.satellite[0].dlkDSL.mac "All Nodes Message Generation Delay at Satellite" ETV
vector 5 Florasat_Individual_Sats.satellite[0].dlkDSL.mac "Message Generation Delay for Node 283 at Satellite" ETV
vector 6 Florasat_Individual_Sats.satellite[0].net.packetHandler "packets received" ETV
vector 7 Florasat_Individual_Sats.satellite[0].net.packetHandler "dropped unroutable" ETV
vector 8 Florasat_Individual_Sats.satellite[0].net.packetHandler "packets dropped" ETV
vector 9 Florasat_Individual_Sats.satellite[0].dlkDSL.mac "Repetition Position for Node 358 at Satellite" ETV
vector 10 Florasat_Individual_Sats.satellite[0].dlkDSL.mac "Repetition Generation Delay for Node 358 at Satellite" ETV
vector 11 Florasat_Individual_Sats.satellite[0].dlkDSL.mac "Message Generation Delay for Node 358 at Satellite" ETV
vector 12 Florasat_Individual_Sats.satellite[0].dlkDSL.mac "Repetition Position for Node 73 at Satellite" ETV
vector 13 Florasat_Individual_Sats.satellite[0].dlkDSL.mac "Repetition Generation Delay for Node 73 at Satellite" ETV
vector 14 Florasat_Individual_Sats.satellite[0].dlkDSL.mac "Message Generation Delay for Node 73 at Satellite" ETV
vector 15 Florasat_Individual_Sats.satellite[0].dlkDSL.mac "Repetition Position for Node 88 at Satellite" ETV
vector 16 Florasat_Individual_Sats.satellite[0].dlkDSL.mac "Repetition Generation Delay for Node 88 at Satellite" ETV
vector 17 Florasat_Individual_Sats.satellite[0].dlkDSL.mac "Message Generation Delay for Node 88 at Satellite" ETV
vector 18 Florasat_Individual_Sats.satellite[0].dlkDSL.mac "Repetition Position for Node 313 at Satellite" ETV
vector 19 Florasat_Individual_Sats.satellite[0].dlkDSL.mac "Repetition Generation Delay for Node 313 at Satellite" ETV
vector 20 Florasat_Individual_Sats.satellite[0].dlkDSL.mac "Message Generation Delay for Node 313 at Satellite" ETV
vector 21 Florasat_Individual_Sats.satellite[0].dlkDSL.mac "Repetition Position for Node 328 at Satellite" ETV
vector 22 Florasat_Individual_Sats.satellite[0].dlkDSL.mac "Repetition Generation Delay for Node 328 at Satellite" ETV
vector 23 Florasat_Individual_Sats.satellite[0].dlkDSL.mac "Message Generation Delay for Node 328 at Satellite" ETV
vector 24 Florasat_Individual_Sats.satellite[0].dlkDSL.mac "Repetition Position for Node 58 at Satellite" ETV
vector 25 Florasat_Individual_Sats.satellite[0].dlkDSL.mac "Repetition Generation Delay for Node 58 at Satellite" ETV
vector 26 Florasat_Individual_Sats.satellite[0].dlkDSL.mac "Message Generation Delay for Node 58 at Satellite" ETV
vector 27 Florasat_Individual_Sats.satellite[0].dlkDSL.mac "Repetition Position for Node 193 at Satellite" ETV
vector 28 Florasat_Individual_Sats.satellite[0].dlkDSL.mac "Repetition Generation Delay for Node 193 at Satellite" ETV
vector 29 Florasat_Individual_Sats.satellite[0].dlkDSL.mac "Message Generation Delay for Node 193 at Satellite" ETV
vector 30 Florasat_Individual_Sats.satellite[0].dlkDSL.mac "Repetition Position for Node 343 at Satellite" ETV
vector 31 Florasat_Individual_Sats.satellite[0].dlkDSL.mac "Repetition Generation Delay for Node 343 at Satellite" ETV
vector 32 Florasat_Individual_Sats.satellite[0].dlkDSL.mac "Message Generation Delay for Node 343 at Satellite" ETV
vector 33 Florasat_Individual_Sats.satellite[0].dlkDSL.mac "Repetition Position for Node 118 at Satellite" ETV
vector 34 Florasat_Individual_Sats.satellite[0].dlkDSL.mac "Repetition Generation Delay for Node 118 at Satellite" ETV
vector 35 Florasat_Individual_Sats.satellite[0].dlkDSL.mac "Message Generation Delay for Node 118 at Satellite" ETV
vector 36 Florasat_Individual_Sats.satellite[0].dlkDSL.mac "Repetition Position for Node 268 at Satellite" ETV
vector 37 Florasat_Individual_Sats.satellite[0].dlkDSL.mac "Repetition Generation Delay for Node 268 at Satellite" ETV
vector 38 Florasat_Individual_Sats.satellite[0].dlkDSL.mac "Message Generation Delay for Node 268 at Satellite" ETV
vector 39 Florasat_Individual_Sats.satellite[0].dlkDSL.mac "Repetition Position for Node 238 at Satellite" ETV
vector 40 Florasat_Individual_Sats.satellite[0].dlkDSL.mac "Repetition Generation Delay for Node 238 at Satellite" ETV
vector 41 Florasat_Individual_Sats.satellite[0].dlkDSL.mac "Message Generation Delay for Node 238 at Satellite" ETV
vector 42 Florasat_Individual_Sats.satellite[0].dlkDSL.mac "Repetition Position for Node 103 at Satellite" ETV
vector 43 Florasat_Individual_Sats.satellite[0].dlkDSL.mac "Repetition Generation Delay for Node 103 at Satellite" ETV
vector 44 Florasat_Individual_Sats.satellite[0].dlkDSL.mac "Message Generation Delay for Node 103 at Satellite" ETV
vector 45 Florasat_Individual_Sats.satellite[0].dlkDSL.mac "Repetition Position for Node 433 at Satellite" ETV
vector 46 Florasat_Individual_Sats.satellite[0].dlkDSL.mac "Repetition Generation Delay for Node 433 at Satellite" ETV
vector 47 Florasat_Individual_Sats.satellite[0].dlkDSL.mac "Message Generation Delay for Node 433 at Satellite" ETV
vector 48 Florasat_Individual_Sats.satellite[0].dlkDSL.mac "Repetition Position for Node 208 at Satellite" ETV
vector 49 Florasat_Individual_Sats.satellite[0].dlkDSL.mac "Repetition Generation Delay for Node 208 at Satellite" ETV
vector 50 Florasat_Individual_Sats.satellite[0].dlkDSL.mac "Message Generation Delay for Node 208 at Satellite" ETV
vector 51 Florasat_Individual_Sats.satellite[0].dlkDSL.mac "Repetition Position for Node 133 at Satellite" ETV
vector 52 Florasat_Individual_Sats.satellite[0].dlkDSL.mac "Repetition Generation Delay for Node 133 at Satellite" ETV
vector 53 Florasat_Individual_Sats.satellite[0].dlkDSL.mac "Message Generation Delay for Node 133 at Satellite" ETV
vector 54 Florasat_Individual_Sats.satellite[0].dlkDSL.mac "Repetition Position for Node 388 at Satellite" ETV
vector 55 Florasat_Individual_Sats.satellite[0].dlkDSL.mac "Repetition Generation Delay for Node 388 at Satellite" ETV
vector 56 Florasat_Individual_Sats.satellite[0].dlkDSL.mac "Message Generation Delay for Node 388 at Satellite" ETV
vector 57 Florasat_Individual_Sats.satellite[0].dlkDSL.mac "Repetition Position for Node 418 at Satellite" ETV
vector 58 Florasat_Individual_Sats.satellite[0].dlkDSL.mac "Repetition Generation Delay for Node 418 at Satellite" ETV
vector 59 Florasat_Individual_Sats.satellite[0].dlkDSL.mac "Message Generation Delay for Node 418 at Satellite" ETV
vector 60 Florasat_Individual_Sats.satellite[0].dlkDSL.mac "Repetition Position for Node 373 at Satellite" ETV
vector 61 Florasat_Individual_Sats.satellite[0].dlkDSL.mac "Repetition Generation Delay for Node 373 at Satellite" ETV
vector 62 Florasat_Individual_Sats.satellite[0].dlkDSL.mac "Message Generation Delay for Node 373 at Satellite" ETV
vector 63 Florasat_Individual_Sats.satellite[0].dlkDSL.mac "Repetition Position for Node 223 at Satellite" ETV
vector 64 Florasat_Individual_Sats.satellite[0].dlkDSL.mac "Repetition Generation Delay for Node 223 at Satellite" ETV
vector 65 Florasat_Individual_Sats.satellite[0].dlkDSL.mac "Message Generation Delay for Node 223 at Satellite" ETV
vector 66 Florasat_Individual_Sats.satellite[0].dlkDSL.mac "Repetition Position for Node 253 at Satellite" ETV
vector 67 Florasat_Individual_Sats.satellite[0].dlkDSL.mac "Repetition Generation Delay for Node 253 at Satellite" ETV
vector 68 Florasat_Individual_Sats.satellite[0].dlkDSL.mac "Message Generation Delay for Node 253 at Satellite" ETV
vector 69 Florasat_Individual_Sats.satellite[0].dlkDSL.mac "Repetition Position for Node 403 at Satellite" ETV
vector 70 Florasat_Individual_Sats.satellite[0].dlkDSL.mac "Repetition Generation Delay for Node 403 at Satellite" ETV
vector 71 Florasat_Individual_Sats.satellite[0].dlkDSL.mac "Message Generation Delay for Node 403 at Satellite" ETV
vector 72 Florasat_Individual_Sats.satellite[0].dlkDSL.mac "Repetition Position for Node 298 at Satellite" ETV
vector 73 Florasat_Individual_Sats.satellite[0].dlkDSL.mac "Repetition Generation Delay for Node 298 at Satellite" ETV
vector 74 Florasat_Individual_Sats.satellite[0].dlkDSL.mac "Message Generation Delay for Node 298 at Satellite" ETV
vector 75 Florasat_Individual_Sats.satellite[0].dlkDSL.mac "Repetition Position for Node 148 at Satellite" ETV
vector 76 Florasat_Individual_Sats.satellite[0].dlkDSL.mac "Repetition Generation Delay for Node 148 at Satellite" ETV
vector 77 Florasat_Individual_Sats.satellite[0].dlkDSL.mac "Message Generation Delay for Node 148 at Satellite" ETV
vector 78 Florasat_Individual_Sats.satellite[0].dlkDSL.mac "Repetition Position for Node 493 at Satellite" ETV
vector 79 Florasat_Individual_Sats.satellite[0].dlkDSL.mac "Repetition Generation Delay for Node 493 at Satellite" ETV
vector 80 Florasat_Individual_Sats.satellite[0].dlkDSL.mac "Message Generation Delay for Node 493 at Satellite" ETV
vector 81 Florasat_Individual_Sats.satellite[0].dlkDSL.mac "Repetition Position for Node 163 at Satellite" ETV
vector 82 Florasat_Individual_Sats.satellite[0].dlkDSL.mac "Repetition Generation Delay for Node 163 at Satellite" ETV
vector 83 Florasat_Individual_Sats.satellite[0].dlkDSL.mac "Message Generation Delay for Node 163 at Satellite" ETV
vector 84 Florasat_Individual_Sats.satellite[0].dlkDSL.mac "Repetition Position for Node 178 at Satellite" ETV
vector 85 Florasat_Individual_Sats.satellite[0].dlkDSL.mac "Repetition Generation Delay for Node 178 at Satellite" ETV
vector 86 Florasat_Individual_Sats.satellite[0].dlkDSL.mac "Message Generation Delay for Node 178 at Satellite" ETV
vector 87 Florasat_Individual_Sats.satellite[0].dlkDSL.mac "Repetition Position for Node 478 at Satellite" ETV
vector 88 Florasat_Individual_Sats.satellite[0].dlkDSL.mac "Repetition Generation Delay for Node 478 at Satellite" ETV
vector 89 Florasat_Individual_Sats.satellite[0].dlkDSL.mac "Message Generation Delay for Node 478 at Satellite" ETV
0	19321 7127 154 6426 8.53076672474 745.80473525897 267 180 180 48060 8650800
1	26448 482 154 6416 8.53076672474 743.52561045729 18 180 180 3240 583200
2	26930 10269 154 6426 8.53076672474 745.80473525897 267 7.53076672474 744.80473525897 89019.64314801 40601615.278891
3	37199 695 154 6416 8.53076672474 743.52561045729 18 7.53076672474 742.52561045729 6977.4819868775 3567778.7599546
4	37894 1054 154 4894 8.53076672474 509.28975678226 28 7.53076672474 508.28975678226 3960.5233436335 1078376.3375723
5	38948 34 154 154 8.53076672474 8.53076672474 1 7.53076672474 7.53076672474 7.53076672474 56.712447462451
6	38982 7019 155 6427 8.53076672474 745.80473525897 267 1 267 35778 6380410
7	46001 7019 155 6427 8.53076672474 745.80473525897 267 1 267 35778 6380410
8	53020 7019 155 6427 8.53076672474 745.80473525897 267 1 267 35778 6380410
9	60039 211 167 4756 11.2048247571 499.96231214126 8 180 180 1440 259200
10	60250 311 167 4756 11.2048247571 499.96231214126 8 10.2048247571 498.96231214126 1561.3882092854 443883.344089
11	60561 35 167 167 11.2048247571 11.2048247571 1 10.2048247571 10.2048247571 10.2048247571 104.13844832312
12	60596 384 186 5678 13.19326571482 641.23522126874 14 180 180 2520 453600
13	60980 547 186 5678 13.19326571482 641.23522126874 14 12.19326571482 640.23522126874 3882.2638759546 1642643.9570596
14	61527 37 186 186 13.19326571482 13.19326571482 1 12.19326571482 12.19326571482 12.19326571482 148.6757287922
15	61564 387 211 5647 16.38968105488 636.96771791614 14 180 180 2520 453600
16	61951 551 211 5647 16.38968105488 636.96771791614 14 15.38968105488 635.96771791614 4153.102773099 1749264.819873
17	62502 37 211 211 16.38968105488 16.38968105488 1 15.38968105488 15.38968105488 15.38968105488 236.84228297093
18	62539 327 230 4724 18.71139786433 493.86239995239 12 180 180 2160 388800
19	62866 465 230 4724 18.71139786433 493.86239995239 12 17.71139786433 492.86239995239 2471.8274022509 750017.38077387
20	63331 37 230 230 18.71139786433 18.71139786433 1 17.71139786433 17.71139786433 17.71139786433 313.69361430859
21	63368 467 255 4615 20.14148331474 470.85707027461 17 180 180 3060 550800
22	63835 665 255 4615 20.14148331474 470.85707027461 17 19.14148331474 469.85707027461 3158.587227389 803862.83373554
23	64500 37 255 255 20.14148331474 20.14148331474 1 19.14148331474 19.14148331474 19.14148331474 366.39638348847
24	64537 276 368 5900 30.86352227548 664.06599435665 10 180 180 1800 324000
25	64813 394 368 5900 30.86352227548 664.06599435665 10 29.86352227548 663.06599435665 2666.6986880243 1159398.7899703
26	65207 37 368 368 30.86352227548 30.86352227548 1 29.86352227548 29.86352227548 29.86352227548 891.82996269809
27	65244 274 405 5210 34.82198492152 569.83110147057 10 180 180 1800 324000
28	65518 390 405 5210 34.82198492152 569.83110147057 10 33.82198492152 568.83110147057 2444.6415026107 879926.78539561
29	65908 37 405 405 34.82198492152 34.82198492152 1 33.82198492152 33.82198492152 33.82198492152 1143.9266640315
30	65945 469 483 5181 42.20434754951 559.14511394434 17 180 180 3060 550800
31	66414 669 483 5181 42.20434754951 559.14511394434 17 41.20434754951 558.14511394434 3891.7918025326 1298638.2706085
32	67083 37 483 483 42.20434754951 42.20434754951 1 41.20434754951 41.20434754951 41.20434754951 1697.7982569808
33	67120 334 916 6233 76.08393738608 710.65385151054 12 180 180 2160 388800
34	67454 477 916 6233 76.08393738608 710.65385151054 12 75.08393738608 709.65385151054 5885.0870485633 3301043.0426662
35	67931 37 916 916 76.08393738608 76.08393738608 1 75.08393738608 75.08393738608 75.08393738608 5637.5976533968
36	67968 274 1018 4303 85.37991314888 413.72543811908 10 180 180 1800 324000
37	68242 388 1018 4303 85.37991314888 413.72543811908 10 84.37991314888 412.72543811908 2666.0305723681 827029.78909601
38	68630 38 1018 1018 85.37991314888 85.37991314888 1 84.37991314888 84.37991314888 84.37991314888 7119.9697430125
39	68668 388 1115 6265 96.29802750767 718.67005841917 14 180 180 2520 453600
40	69056 552 1115 6265 96.29802750767 718.67005841917 14 95.29802750767 717.67005841917 5868.4038548097 3138452.1959771
41	69608 38 1115 1115 96.29802750767 96.29802750767 1 95.29802750767 95.29802750767 95.29802750767 9081.7140468526
42	69646 251 1281 5881 103.70462836525 661.01917958063 9 180 180 1620 291600
43	69897 358 1281 5881 103.70462836525 661.01917958063 9 102.70462836525 660.01917958063 3205.9118621678 1524654.750842
44	70255 40 1281 1281 103.70462836525 103.70462836525 1 102.70462836525 102.70462836525 102.70462836525 10548.240687644
45	70295 168 1285 4357 103.85242447354 428.25104384547 6 180 180 1080 194400
46	70463 240 1285 4357 103.85242447354 428.25104384547 6 102.85242447354 427.25104384547 1810.8492092332 614422.66789592
47	70703 40 1285 1285 103.85242447354 103.85242447354 1 102.85242447354 102.85242447354 102.85242447354 10578.621220085
48	70743 196 1396 5977 112.50558309469 678.95946133397 7 180 180 1260 226800
49	70939 280 1396 5977 112.50558309469 678.95946133397 7 111.50558309469 677.95946133397 1916.6328619472 762126.25064129
50	71219 40 1396 1396 112.50558309469 112.50558309469 1 111.50558309469 111.50558309469 111.50558309469 12433.495061287
51	71259 222 1479 4890 122.84461433993 508.78267886923 8 180 180 1440 259200
52	71481 316 1479 4890 122.84461433993 508.78267886923 8 121.84461433993 507.78267886923 2332.8276052371 818439.89144635
53	71797 40 1479 1479 122.84461433993 122.84461433993 1 121.84461433993 121.84461433993 121.84461433993 14846.110043646
54	71837 195 1628 3947 136.25583714567 351.67759811383 7 180 180 1260 226800
55	72032 278 1628 3947 136.25583714567 351.67759811383 7 135.25583714567 350.67759811383 1692.4036120719 451240.08514221
56	72310 40 1628 1628 136.25583714567 136.25583714567 1 135.25583714567 135.25583714567 135.25583714567 18294.141481976
57	72350 140 1671 5869 140.08399180779 657.43578158962 5 180 180 900 162000
58	72490 200 1671 5869 140.08399180779 657.43578158962 5 139.08399180779 656.43578158962 1652.5423732838 741303.8151516
59	72690 40 1671 1671 140.08399180779 140.08399180779 1 139.08399180779 139.08399180779 139.08399180779 19344.356777189
60	72730 252 1713 5943 142.73588378195 670.76663358933 9 180 180 1620 291600
61	72982 360 1713 5943 142.73588378195 670.76663358933 9 141.73588378195 669.76663358933 3164.435740405 1355727.178309
62	73342 40 1713 1713 142.73588378195 142.73588378195 1 141.73588378195 141.73588378195 141.73588378195 20089.06075145
63	73382 307 1723 6319 143.23061641133 726.83356297262 11 180 180 1980 356400
64	73689 438 1723 6319 143.23061641133 726.83356297262 11 142.23061641133 725.83356297262 3877.8595117369 1729312.2780158
65	74127 40 1723 1723 143.23061641133 143.23061641133 1 142.23061641133 142.23061641133 142.23061641133 20229.548244747
66	74167 167 1761 5740 146.50834412955 649.92939401594 6 180 180 1080 194400
67	74334 238 1761 5740 146.50834412955 649.92939401594 6 145.50834412955 648.92939401594 1656.1115043073 631278.31936465
68	74572 40 1761 1761 146.50834412955 146.50834412955 1 145.50834412955 145.50834412955 145.50834412955 21172.678211324
69	74612 165 2617 4280 207.93352973758 410.55342296366 6 180 180 1080 194400
70	74777 234 2617 4280 207.93352973758 410.55342296366 6 206.93352973758 409.55342296366 1818.2856868085 579828.78776249
71	75011 40 2617 2617 207.93352973758 207.93352973758 1 206.93352973758 206.93352973758 206.93352973758 42821.485729654
72	75051 224 2670 6426 215.55054968319 745.80473525897 8 180 180 1440 259200
73	75275 320 2670 6426 215.55054968319 745.80473525897 8 214.55054968319 744.80473525897 3712.3320674513 2012985.0620563
74	75595 40 2670 2670 215.55054968319 215.55054968319 1 214.55054968319 214.55054968319 214.55054968319 46031.938369359
75	75635 112 3352 5561 271.74504400108 625.31701461056 4 180 180 720 129600
76	75747 160 3352 5561 271.74504400108 625.31701461056 4 270.74504400108 624.31701461056 1990.4510139196 1070049.5933144
77	75907 40 3352 3352 271.74504400108 271.74504400108 1 270.74504400108 270.74504400108 270.74504400108 73302.878851147
78	75947 138 3489 5580 286.62149993917 627.2469518972 5 180 180 900 162000
79	76085 196 3489 5580 286.62149993917 627.2469518972 5 285.62149993917 626.2469518972 2479.6668106995 1298490.7077328
80	76281 40 3489 3489 286.62149993917 286.62149993917 1 285.62149993917 285.62149993917 285.62149993917 81579.641227501
81	76321 83 4117 5640 390.96152570091 636.46647100331 3 180 180 540 97200
82	76404 118 4117 5640 390.96152570091 636.46647100331 3 389.96152570091 635.46647100331 1601.292433101 887507.47640299
83	76522 40 4117 4117 390.96152570091 390.96152570091 1 389.96152570091 389.96152570091 389.96152570091 152069.99152698
84	76562 252 4764 6328 500.87636201985 727.64407695266 9 180 180 1620 291600
85	76814 360 4764 6328 500.87636201985 727.64407695266 9 499.87636201985 726.64407695266 5466.0740311709 3377535.0979671
86	77174 40 4764 4764 500.87636201985 500.87636201985 1 499.87636201985 499.87636201985 499.87636201985 249876.3773062
87	77214 223 4894 6392 509.28975678226 739.79721224809 8 180 180 1440 259200
88	77437 318 4894 6392 509.28975678226 739.79721224809 8 508.28975678226 738.79721224809 5014.6618807042 3184773.3476466
89	77755 40 4894 4894 509.28975678226 509.28975678226 1 508.28975678226 508.28975678226 508.28975678226 258358.47684977

