file 73284 1780691891                                           
version 3
run General-5-20260605-22:38:08-1048198
attr configname General
attr datetime 20260605-22:38:08
attr datetimef 20260605-223808
attr experiment General
attr inifile Test_MLModel_1.ini
attr iterationvars $0=88143
attr iterationvarsd 88143
attr iterationvarsf 88143-
attr measurement $0=88143
attr network Florasat.Test_Individual.Florasat_Individual_Sats
attr processid 1048198
attr repetition 5
attr replication #5
attr resultdir results
attr runnumber 5
attr seedset 5
config *.satellite[0].NoradModule.raan 185
config *.stats_altitude 670
config *.stats_raan 185
config image-path ../../images:../../../../samples/inet4.5_2/images
config network Florasat.Test_Individual.Florasat_Individual_Sats
config rng-class cMersenneTwister
config *.**.result-recording-modes -
config **.result-recording-modes -
config **.statistic-recording true
config **.scalar-recording true
config **.vector-recording true
config **.vector-record-eventnumbers true
config repeat 10
config seed-0-mt 88143
config sim-time-limit 749s
config simtime-resolution -11
config **.stats_altitude 670
config **.stats_raan 185
config *.radioMedium.backgroundNoise.power -110dBm
config *.radioMedium.mediumLimitCache.centerFrequency 868MHz
config *.radioMedium.mediumLimitCache.maxTransmissionDuration 4s
config *.radioMedium.mediumLimitCache.minInterferenceTime 0s
config **.numSatellites 1
config *.satellite[*].mobilityType "\"Sat_Mob_SatelliteMobility_Standalone\""
config *.satellite[*].noradModuleType "\"Sat_Mob_NoradA\""
config **.satellite[*].**.initFromDisplayString false
config *.satellite[*].mobility.faceForward true
config *.satellite[*].mobility.updateInterval 20s
config *.satellite[*].NoradModule.satName "\"FLoRaSat\""
config *.satellite[*].NoradModule.satIndex -1
config *.satellite[*].NoradModule.baseYear 20
config *.satellite[*].NoradModule.baseDay 1.5
config *.satellite[*].NoradModule.planes 1
config *.satellite[*].NoradModule.satPerPlane 1
config *.satellite[*].NoradModule.eccentricity 0.000001
config *.satellite[*].NoradModule.inclination 98
config *.satellite[*].NoradModule.altitude 670
config *.satellite[0].NoradModule.raan 185
config *.satellite[0].NoradModule.meanAnomaly 195
config *.satellite[*].phyDSL.radio.receiver.enableCollisionOverlap true
config *.satellite[*].phyDSL.radio.receiver.minCollisionOverlap 0s
config *.satellite[*].phyDSL.radio.antenna.typename ConstantGainAntenna
config *.satellite[*].phyDSL.radio.antenna.mobilityModule "\"^.^.^.mobility\""
config *.satellite[*].phyISL.radio.antenna.mobilityModule "\"^.^.^.mobility\""
config *.satellite[*].phyGSL.radio.antenna.mobilityModule "\"^.^.^.mobility\""
config *.satellite[*].phyDSL.radio.antenna.gain 12dB
config *.satellite[*].net.routingType "\"Null_Routing\""
config *.terminal[*].net.routingType "\"Ter_Null_Routing\""
config *.**.numGroundLinks 40
config *.satellite[*].**.interfaceTableModule "\"\""
config **.radioMedium.typename LoRaMedium
config **.radioMedium.analogModel.typename LoRaAnalogModel
config **.intraPlaneIslDisabled false
config **.interPlaneIslDisabled false
config **.numTerminals 30
config *.terminal[*].phy.radio.antenna.mobilityModule "\"^.^.^.mob\""
config *.terminal[*].dlk.mac.interfaceTableModule "\"\""
config *.terminal[*].dlk.energySourceModule "\"\""
config *.terminal[*].dlk.mac.LoRaTP "intuniform(12, 14)"
config *.terminal[*].dlk.mac.LoRaSF "intuniform(10, 12)"
config *.terminal[*].dlk.mac.useMLBox true
config *.terminal[*].dlk.mac.mlBox.modelPath "\"/home/ylnner/Documents/omnet++/omnetpp-6.3.0/projects/florasat_v4_ult_routing/simulations/Test_Individual/mlmodels/bilstm_scripted.pt\""
config **.numberOfPacketsToSend 0
config **.timeToFirstPacket 1s
config **.timeToNextPacket 50s
config *.terminal[0].mob.radius 0.0
config *.terminal[0].mob.centerLatitude 54.978
config *.terminal[0].mob.centerLongitude -1.617
config *.terminal[1].mob.radius 0.0
config *.terminal[1].mob.centerLatitude 52.630
config *.terminal[1].mob.centerLongitude -1.139
config *.terminal[2].mob.radius 0.0
config *.terminal[2].mob.centerLatitude 52.612
config *.terminal[2].mob.centerLongitude -6.295
config *.terminal[3].mob.radius 0.0
config *.terminal[3].mob.centerLatitude 47.243
config *.terminal[3].mob.centerLongitude 6.024
config *.terminal[4].mob.radius 0.0
config *.terminal[4].mob.centerLatitude 43.610
config *.terminal[4].mob.centerLongitude 3.876
config *.terminal[5].mob.radius 0.0
config *.terminal[5].mob.centerLatitude 49.443
config *.terminal[5].mob.centerLongitude 1.099
config *.terminal[6].mob.radius 0.0
config *.terminal[6].mob.centerLatitude 37.992
config *.terminal[6].mob.centerLongitude -1.130
config *.terminal[7].mob.radius 0.0
config *.terminal[7].mob.centerLatitude 40.965
config *.terminal[7].mob.centerLongitude -5.664
config *.terminal[8].mob.radius 0.0
config *.terminal[8].mob.centerLatitude 40.657
config *.terminal[8].mob.centerLongitude -7.914
config *.terminal[9].mob.radius 0.0
config *.terminal[9].mob.centerLatitude 51.340
config *.terminal[9].mob.centerLongitude 12.373
config *.terminal[10].mob.radius 0.0
config *.terminal[10].mob.centerLatitude 51.455
config *.terminal[10].mob.centerLongitude 7.011
config *.terminal[11].mob.radius 0.0
config *.terminal[11].mob.centerLatitude 49.452
config *.terminal[11].mob.centerLongitude 11.076
config *.terminal[12].mob.radius 0.0
config *.terminal[12].mob.centerLatitude 43.769
config *.terminal[12].mob.centerLongitude 11.255
config *.terminal[13].mob.radius 0.0
config *.terminal[13].mob.centerLatitude 41.117
config *.terminal[13].mob.centerLongitude 16.871
config *.terminal[14].mob.radius 0.0
config *.terminal[14].mob.centerLatitude 52.132
config *.terminal[14].mob.centerLongitude 5.291
config *.terminal[15].mob.radius 0.0
config *.terminal[15].mob.centerLatitude 50.411
config *.terminal[15].mob.centerLongitude 4.444
config *.terminal[16].mob.radius 0.0
config *.terminal[16].mob.centerLatitude 47.559
config *.terminal[16].mob.centerLongitude 7.588
config *.terminal[17].mob.radius 0.0
config *.terminal[17].mob.centerLatitude 55.403
config *.terminal[17].mob.centerLongitude 10.402
config *.terminal[18].mob.radius 0.0
config *.terminal[18].mob.centerLatitude 59.858
config *.terminal[18].mob.centerLongitude 17.638
config *.terminal[19].mob.radius 0.0
config *.terminal[19].mob.centerLatitude 60.451
config *.terminal[19].mob.centerLongitude 22.266
config *.terminal[20].mob.radius 0.0
config *.terminal[20].mob.centerLatitude 56.325
config *.terminal[20].mob.centerLongitude 22.349
config *.terminal[21].mob.radius 0.0
config *.terminal[21].mob.centerLatitude 49.883
config *.terminal[21].mob.centerLongitude 18.568
config *.terminal[22].mob.radius 0.0
config *.terminal[22].mob.centerLatitude 47.531
config *.terminal[22].mob.centerLongitude 21.627
config *.terminal[23].mob.radius 0.0
config *.terminal[23].mob.centerLatitude 44.179
config *.terminal[23].mob.centerLongitude 28.649
config *.terminal[24].mob.radius 0.0
config *.terminal[24].mob.centerLatitude 45.327
config *.terminal[24].mob.centerLongitude 14.442
config *.terminal[25].mob.radius 0.0
config *.terminal[25].mob.centerLatitude 40.694
config *.terminal[25].mob.centerLongitude 30.400
config *.terminal[26].mob.radius 0.0
config *.terminal[26].mob.centerLatitude 37.066
config *.terminal[26].mob.centerLongitude 37.383
config *.terminal[27].mob.radius 0.0
config *.terminal[27].mob.centerLatitude 64.836
config *.terminal[27].mob.centerLongitude -23.708
config *.terminal[28].mob.radius 0.0
config *.terminal[28].mob.centerLatitude 28.099
config *.terminal[28].mob.centerLongitude -17.113
config *.terminal[29].mob.radius 0.0
config *.terminal[29].mob.centerLatitude 34.921
config *.terminal[29].mob.centerLongitude 33.623
config **.numStations 3
config **.numStations 3
config *.station[0].mobility.latitude 55.752
config *.station[0].mobility.longitude 37.616
config *.station[0].cityName "\"Moscow\""
config *.station[0].groundStationId 7
config *.station[0].routerAddr "\"10.0.0.29\""
config *.station[0].serving "\"10.0.0.29\""
config *.station[1].mobility.latitude 28.652
config *.station[1].mobility.longitude 77.231
config *.station[1].cityName "\"Delhi\""
config *.station[1].groundStationId 11
config *.station[1].routerAddr "\"10.0.0.45\""
config *.station[1].serving "\"10.0.0.45\""
config *.station[2].mobility.latitude 25.35
config *.station[2].mobility.longitude 51.24
config *.station[2].cityName "\"Katar\""
config *.station[2].groundStationId 19
config *.station[2].routerAddr "\"10.0.0.77\""
config *.station[2].serving "\"10.0.0.77\""
config *.visualizer.canvasVisualizer.mediumVisualizer.typename ""
config *.visualizer.*.radioVisualizer.displayAntennaLobes true
config *.visualizer.*.dataLinkVisualizer.displayLinks true
config *.visualizer.*.mobilityVisualizer.displayMovementTrails true
config *.visualizer.*.mobilityVisualizer.movementTrailLineWidth 1
config *.visualizer.*.mobilityVisualizer.trailLength 3000
config **.ttxStart_max 30s
config **.ttxIdle_min 10s
config **.ttxIdle_max 25s
config **.Ntw 2
config **.Ntx 45
config **.ttwDuration 550s

vector 0 Florasat_Individual_Sats.satellite[0].dlkDSL.mac "Satellite Position when Repetition Received" ETV
vector 1 Florasat_Individual_Sats.satellite[0].dlkDSL.mac "Repetition Position for Node 403 at Satellite" ETV
vector 2 Florasat_Individual_Sats.satellite[0].dlkDSL.mac "All Nodes Repetition Generation Delay at Satellite" ETV
vector 3 Florasat_Individual_Sats.satellite[0].dlkDSL.mac "Repetition Generation Delay for Node 403 at Satellite" ETV
vector 4 Florasat_Individual_Sats.satellite[0].dlkDSL.mac "All Nodes Message Generation Delay at Satellite" ETV
vector 5 Florasat_Individual_Sats.satellite[0].dlkDSL.mac "Message Generation Delay for Node 403 at Satellite" ETV
vector 6 Florasat_Individual_Sats.satellite[0].net.packetHandler "packets received" ETV
vector 7 Florasat_Individual_Sats.satellite[0].net.packetHandler "dropped unroutable" ETV
vector 8 Florasat_Individual_Sats.satellite[0].net.packetHandler "packets dropped" ETV
vector 9 Florasat_Individual_Sats.satellite[0].dlkDSL.mac "Repetition Position for Node 358 at Satellite" ETV
vector 10 Florasat_Individual_Sats.satellite[0].dlkDSL.mac "Repetition Generation Delay for Node 358 at Satellite" ETV
vector 11 Florasat_Individual_Sats.satellite[0].dlkDSL.mac "Message Generation Delay for Node 358 at Satellite" ETV
vector 12 Florasat_Individual_Sats.satellite[0].dlkDSL.mac "Repetition Position for Node 328 at Satellite" ETV
vector 13 Florasat_Individual_Sats.satellite[0].dlkDSL.mac "Repetition Generation Delay for Node 328 at Satellite" ETV
vector 14 Florasat_Individual_Sats.satellite[0].dlkDSL.mac "Message Generation Delay for Node 328 at Satellite" ETV
vector 15 Florasat_Individual_Sats.satellite[0].dlkDSL.mac "Repetition Position for Node 268 at Satellite" ETV
vector 16 Florasat_Individual_Sats.satellite[0].dlkDSL.mac "Repetition Generation Delay for Node 268 at Satellite" ETV
vector 17 Florasat_Individual_Sats.satellite[0].dlkDSL.mac "Message Generation Delay for Node 268 at Satellite" ETV
vector 18 Florasat_Individual_Sats.satellite[0].dlkDSL.mac "Repetition Position for Node 133 at Satellite" ETV
vector 19 Florasat_Individual_Sats.satellite[0].dlkDSL.mac "Repetition Generation Delay for Node 133 at Satellite" ETV
vector 20 Florasat_Individual_Sats.satellite[0].dlkDSL.mac "Message Generation Delay for Node 133 at Satellite" ETV
vector 21 Florasat_Individual_Sats.satellite[0].dlkDSL.mac "Repetition Position for Node 343 at Satellite" ETV
vector 22 Florasat_Individual_Sats.satellite[0].dlkDSL.mac "Repetition Generation Delay for Node 343 at Satellite" ETV
vector 23 Florasat_Individual_Sats.satellite[0].dlkDSL.mac "Message Generation Delay for Node 343 at Satellite" ETV
vector 24 Florasat_Individual_Sats.satellite[0].dlkDSL.mac "Repetition Position for Node 58 at Satellite" ETV
vector 25 Florasat_Individual_Sats.satellite[0].dlkDSL.mac "Repetition Generation Delay for Node 58 at Satellite" ETV
vector 26 Florasat_Individual_Sats.satellite[0].dlkDSL.mac "Message Generation Delay for Node 58 at Satellite" ETV
vector 27 Florasat_Individual_Sats.satellite[0].dlkDSL.mac "Repetition Position for Node 373 at Satellite" ETV
vector 28 Florasat_Individual_Sats.satellite[0].dlkDSL.mac "Repetition Generation Delay for Node 373 at Satellite" ETV
vector 29 Florasat_Individual_Sats.satellite[0].dlkDSL.mac "Message Generation Delay for Node 373 at Satellite" ETV
vector 30 Florasat_Individual_Sats.satellite[0].dlkDSL.mac "Repetition Position for Node 313 at Satellite" ETV
vector 31 Florasat_Individual_Sats.satellite[0].dlkDSL.mac "Repetition Generation Delay for Node 313 at Satellite" ETV
vector 32 Florasat_Individual_Sats.satellite[0].dlkDSL.mac "Message Generation Delay for Node 313 at Satellite" ETV
vector 33 Florasat_Individual_Sats.satellite[0].dlkDSL.mac "Repetition Position for Node 73 at Satellite" ETV
vector 34 Florasat_Individual_Sats.satellite[0].dlkDSL.mac "Repetition Generation Delay for Node 73 at Satellite" ETV
vector 35 Florasat_Individual_Sats.satellite[0].dlkDSL.mac "Message Generation Delay for Node 73 at Satellite" ETV
vector 36 Florasat_Individual_Sats.satellite[0].dlkDSL.mac "Repetition Position for Node 193 at Satellite" ETV
vector 37 Florasat_Individual_Sats.satellite[0].dlkDSL.mac "Repetition Generation Delay for Node 193 at Satellite" ETV
vector 38 Florasat_Individual_Sats.satellite[0].dlkDSL.mac "Message Generation Delay for Node 193 at Satellite" ETV
vector 39 Florasat_Individual_Sats.satellite[0].dlkDSL.mac "Repetition Position for Node 283 at Satellite" ETV
vector 40 Florasat_Individual_Sats.satellite[0].dlkDSL.mac "Repetition Generation Delay for Node 283 at Satellite" ETV
vector 41 Florasat_Individual_Sats.satellite[0].dlkDSL.mac "Message Generation Delay for Node 283 at Satellite" ETV
vector 42 Florasat_Individual_Sats.satellite[0].dlkDSL.mac "Repetition Position for Node 418 at Satellite" ETV
vector 43 Florasat_Individual_Sats.satellite[0].dlkDSL.mac "Repetition Generation Delay for Node 418 at Satellite" ETV
vector 44 Florasat_Individual_Sats.satellite[0].dlkDSL.mac "Message Generation Delay for Node 418 at Satellite" ETV
vector 45 Florasat_Individual_Sats.satellite[0].dlkDSL.mac "Repetition Position for Node 223 at Satellite" ETV
vector 46 Florasat_Individual_Sats.satellite[0].dlkDSL.mac "Repetition Generation Delay for Node 223 at Satellite" ETV
vector 47 Florasat_Individual_Sats.satellite[0].dlkDSL.mac "Message Generation Delay for Node 223 at Satellite" ETV
vector 48 Florasat_Individual_Sats.satellite[0].dlkDSL.mac "Repetition Position for Node 238 at Satellite" ETV
vector 49 Florasat_Individual_Sats.satellite[0].dlkDSL.mac "Repetition Generation Delay for Node 238 at Satellite" ETV
vector 50 Florasat_Individual_Sats.satellite[0].dlkDSL.mac "Message Generation Delay for Node 238 at Satellite" ETV
vector 51 Florasat_Individual_Sats.satellite[0].dlkDSL.mac "Repetition Position for Node 388 at Satellite" ETV
vector 52 Florasat_Individual_Sats.satellite[0].dlkDSL.mac "Repetition Generation Delay for Node 388 at Satellite" ETV
vector 53 Florasat_Individual_Sats.satellite[0].dlkDSL.mac "Message Generation Delay for Node 388 at Satellite" ETV
vector 54 Florasat_Individual_Sats.satellite[0].dlkDSL.mac "Repetition Position for Node 88 at Satellite" ETV
vector 55 Florasat_Individual_Sats.satellite[0].dlkDSL.mac "Repetition Generation Delay for Node 88 at Satellite" ETV
vector 56 Florasat_Individual_Sats.satellite[0].dlkDSL.mac "Message Generation Delay for Node 88 at Satellite" ETV
vector 57 Florasat_Individual_Sats.satellite[0].dlkDSL.mac "Repetition Position for Node 103 at Satellite" ETV
vector 58 Florasat_Individual_Sats.satellite[0].dlkDSL.mac "Repetition Generation Delay for Node 103 at Satellite" ETV
vector 59 Florasat_Individual_Sats.satellite[0].dlkDSL.mac "Message Generation Delay for Node 103 at Satellite" ETV
vector 60 Florasat_Individual_Sats.satellite[0].dlkDSL.mac "Repetition Position for Node 208 at Satellite" ETV
vector 61 Florasat_Individual_Sats.satellite[0].dlkDSL.mac "Repetition Generation Delay for Node 208 at Satellite" ETV
vector 62 Florasat_Individual_Sats.satellite[0].dlkDSL.mac "Message Generation Delay for Node 208 at Satellite" ETV
vector 63 Florasat_Individual_Sats.satellite[0].dlkDSL.mac "Repetition Position for Node 148 at Satellite" ETV
vector 64 Florasat_Individual_Sats.satellite[0].dlkDSL.mac "Repetition Generation Delay for Node 148 at Satellite" ETV
vector 65 Florasat_Individual_Sats.satellite[0].dlkDSL.mac "Message Generation Delay for Node 148 at Satellite" ETV
vector 66 Florasat_Individual_Sats.satellite[0].dlkDSL.mac "Repetition Position for Node 118 at Satellite" ETV
vector 67 Florasat_Individual_Sats.satellite[0].dlkDSL.mac "Repetition Generation Delay for Node 118 at Satellite" ETV
vector 68 Florasat_Individual_Sats.satellite[0].dlkDSL.mac "Message Generation Delay for Node 118 at Satellite" ETV
vector 69 Florasat_Individual_Sats.satellite[0].dlkDSL.mac "Repetition Position for Node 253 at Satellite" ETV
vector 70 Florasat_Individual_Sats.satellite[0].dlkDSL.mac "Repetition Generation Delay for Node 253 at Satellite" ETV
vector 71 Florasat_Individual_Sats.satellite[0].dlkDSL.mac "Message Generation Delay for Node 253 at Satellite" ETV
vector 72 Florasat_Individual_Sats.satellite[0].dlkDSL.mac "Repetition Position for Node 298 at Satellite" ETV
vector 73 Florasat_Individual_Sats.satellite[0].dlkDSL.mac "Repetition Generation Delay for Node 298 at Satellite" ETV
vector 74 Florasat_Individual_Sats.satellite[0].dlkDSL.mac "Message Generation Delay for Node 298 at Satellite" ETV
vector 75 Florasat_Individual_Sats.satellite[0].dlkDSL.mac "Repetition Position for Node 433 at Satellite" ETV
vector 76 Florasat_Individual_Sats.satellite[0].dlkDSL.mac "Repetition Generation Delay for Node 433 at Satellite" ETV
vector 77 Florasat_Individual_Sats.satellite[0].dlkDSL.mac "Message Generation Delay for Node 433 at Satellite" ETV
vector 78 Florasat_Individual_Sats.satellite[0].dlkDSL.mac "Repetition Position for Node 178 at Satellite" ETV
vector 79 Florasat_Individual_Sats.satellite[0].dlkDSL.mac "Repetition Generation Delay for Node 178 at Satellite" ETV
vector 80 Florasat_Individual_Sats.satellite[0].dlkDSL.mac "Message Generation Delay for Node 178 at Satellite" ETV
vector 81 Florasat_Individual_Sats.satellite[0].dlkDSL.mac "Repetition Position for Node 478 at Satellite" ETV
vector 82 Florasat_Individual_Sats.satellite[0].dlkDSL.mac "Repetition Generation Delay for Node 478 at Satellite" ETV
vector 83 Florasat_Individual_Sats.satellite[0].dlkDSL.mac "Message Generation Delay for Node 478 at Satellite" ETV
vector 84 Florasat_Individual_Sats.satellite[0].dlkDSL.mac "Repetition Position for Node 163 at Satellite" ETV
vector 85 Florasat_Individual_Sats.satellite[0].dlkDSL.mac "Repetition Generation Delay for Node 163 at Satellite" ETV
vector 86 Florasat_Individual_Sats.satellite[0].dlkDSL.mac "Message Generation Delay for Node 163 at Satellite" ETV
0	18975 6613 160 6458 8.43245585043 748.20496570729 248 180 180 44640 8035200
1	25588 237 160 5231 8.43245585043 569.30214546099 9 180 180 1620 291600
2	25825 9528 160 6458 8.43245585043 748.20496570729 248 7.43245585043 747.20496570729 84426.07096461 38922611.900104
3	35353 340 160 5231 8.43245585043 569.30214546099 9 7.43245585043 568.30214546099 2565.9216968259 1045425.3656675
4	35693 1011 160 4659 8.43245585043 476.97265767019 27 7.43245585043 475.97265767019 4104.9328420297 1105522.841529
5	36704 34 160 160 8.43245585043 8.43245585043 1 7.43245585043 7.43245585043 7.43245585043 55.241399968591
6	36738 6505 161 6459 8.43245585043 748.20496570729 248 1 248 30876 5115124
7	43243 6505 161 6459 8.43245585043 748.20496570729 248 1 248 30876 5115124
8	49748 6505 161 6459 8.43245585043 748.20496570729 248 1 248 30876 5115124
9	56253 395 224 4310 16.58932087937 422.41054435605 15 180 180 2700 486000
10	56648 584 224 4310 16.58932087937 422.41054435605 15 15.58932087937 421.41054435605 2376.7544943598 525071.51571649
11	57232 37 224 224 16.58932087937 16.58932087937 1 15.58932087937 15.58932087937 15.58932087937 243.02692547996
12	57269 385 236 4936 18.11733536831 516.00134870795 14 180 180 2520 453600
13	57654 547 236 4936 18.11733536831 516.00134870795 14 17.11733536831 515.00134870795 3059.0031499792 978926.386469
14	58201 37 236 236 18.11733536831 18.11733536831 1 17.11733536831 17.11733536831 17.11733536831 293.0031701112
15	58238 135 280 3505 24.26304862815 299.59650988674 5 180 180 900 162000
16	58373 192 280 3505 24.26304862815 299.59650988674 5 23.26304862815 298.59650988674 818.19333167073 188653.52287224
17	58565 37 280 280 24.26304862815 24.26304862815 1 23.26304862815 23.26304862815 23.26304862815 541.16943147567
18	58602 221 366 5801 31.67510652742 657.83453849088 8 180 180 1440 259200
19	58823 315 366 5801 31.67510652742 657.83453849088 8 30.67510652742 656.83453849088 2957.5263688324 1480286.5863377
20	59138 37 366 366 31.67510652742 31.67510652742 1 30.67510652742 30.67510652742 30.67510652742 940.96216046857
21	59175 494 378 4740 32.47905787061 494.356239141 18 180 180 3240 583200
22	59669 703 378 4740 32.47905787061 494.356239141 18 31.47905787061 493.356239141 3721.0171448105 1098810.8619955
23	60372 37 378 378 32.47905787061 32.47905787061 1 31.47905787061 31.47905787061 31.47905787061 990.93108442121
24	60409 359 402 4925 34.38761016697 514.61810563685 13 180 180 2340 421200
25	60768 512 402 4925 34.38761016697 514.61810563685 13 33.38761016697 513.61810563685 3080.8276090523 975596.5984234
26	61280 37 402 402 34.38761016697 34.38761016697 1 33.38761016697 33.38761016697 33.38761016697 1114.7325126616
27	61317 162 467 4909 40.78007940416 509.8063773753 6 180 180 1080 194400
28	61479 230 467 4909 40.78007940416 509.8063773753 6 39.78007940416 508.8063773753 1120.9210903986 349213.51559385
29	61709 37 467 467 40.78007940416 40.78007940416 1 39.78007940416 39.78007940416 39.78007940416 1582.4547174013
30	61746 496 496 4724 44.51214532595 492.3957163153 18 180 180 3240 583200
31	62242 706 496 4724 44.51214532595 492.3957163153 18 43.51214532595 491.3957163153 4654.5803891839 1515075.2672086
32	62948 37 496 496 44.51214532595 44.51214532595 1 43.51214532595 43.51214532595 43.51214532595 1893.3067908666
33	62985 499 705 5327 54.98725453269 595.81286423717 18 180 180 3240 583200
34	63484 712 705 5327 54.98725453269 595.81286423717 18 53.98725453269 594.81286423717 5744.3662571622 2359278.1075373
35	64196 37 705 705 54.98725453269 54.98725453269 1 53.98725453269 53.98725453269 53.98725453269 2914.6236519775
36	64233 110 714 5265 56.29204263426 579.80652471053 4 180 180 720 129600
37	64343 157 714 5265 56.29204263426 579.80652471053 4 55.29204263426 578.80652471053 1144.1470925889 491212.94564891
38	64500 37 714 714 56.29204263426 56.29204263426 1 55.29204263426 55.29204263426 55.29204263426 3057.2099786688
39	64537 248 932 5906 76.6925214691 677.32148033627 9 180 180 1620 291600
40	64785 353 932 5906 76.6925214691 677.32148033627 9 75.6925214691 676.32148033627 2258.0194948146 864346.85200127
41	65138 35 932 932 76.6925214691 76.6925214691 1 75.6925214691 75.6925214691 75.6925214691 5729.3578063502
42	65173 139 1502 6342 122.9991787088 731.29982826978 5 180 180 900 162000
43	65312 198 1502 6342 122.9991787088 731.29982826978 5 121.9991787088 730.29982826978 2104.2586825301 1211833.8050037
44	65510 38 1502 1502 122.9991787088 122.9991787088 1 121.9991787088 121.9991787088 121.9991787088 14883.799605622
45	65548 168 1671 5982 137.74283101492 689.87808161708 6 180 180 1080 194400
46	65716 240 1671 5982 137.74283101492 689.87808161708 6 136.74283101492 688.87808161708 2223.3500301592 1063895.8799856
47	65956 40 1671 1671 137.74283101492 137.74283101492 1 136.74283101492 136.74283101492 136.74283101492 18698.601833975
48	65996 191 1738 5243 145.69097262518 571.05879238867 7 180 180 1260 226800
49	66187 270 1738 5243 145.69097262518 571.05879238867 7 144.69097262518 570.05879238867 2169.121156994 801252.24029883
50	66457 40 1738 1738 145.69097262518 145.69097262518 1 144.69097262518 144.69097262518 144.69097262518 20935.477559221
51	66497 56 1916 5185 152.96926424665 558.86086330343 2 180 180 360 64800
52	66553 80 1916 5185 152.96926424665 558.86086330343 2 151.96926424665 557.86086330343 709.83012755008 334303.40008132
53	66633 40 1916 1916 152.96926424665 152.96926424665 1 151.96926424665 151.96926424665 151.96926424665 23094.657275668
54	66673 252 2142 4410 175.24628360865 443.00676228355 9 180 180 1620 291600
55	66925 360 2142 4410 175.24628360865 443.00676228355 9 174.24628360865 442.00676228355 2524.1171134876 772026.16385067
56	67285 40 2142 2142 175.24628360865 175.24628360865 1 174.24628360865 174.24628360865 174.24628360865 30361.767351426
57	67325 250 2338 6330 193.16854316918 727.90404630536 9 180 180 1620 291600
58	67575 356 2338 6330 193.16854316918 727.90404630536 9 192.16854316918 726.90404630536 4258.555154969 2307306.3968722
59	67931 40 2338 2338 193.16854316918 193.16854316918 1 192.16854316918 192.16854316918 192.16854316918 36928.748983765
60	67971 168 2349 5450 193.62799387172 602.38527517978 6 180 180 1080 194400
61	68139 240 2349 5450 193.62799387172 602.38527517978 6 192.62799387172 601.38527517978 2411.4848105292 1108056.169785
62	68379 40 2349 2349 193.62799387172 193.62799387172 1 192.62799387172 192.62799387172 192.62799387172 37105.544023043
63	68419 362 2357 6458 194.05806038006 748.20496570729 13 180 180 2340 421200
64	68781 516 2357 6458 194.05806038006 748.20496570729 13 193.05806038006 747.20496570729 6908.9449622634 4121682.9850492
65	69297 40 2357 2357 194.05806038006 194.05806038006 1 193.05806038006 193.05806038006 193.05806038006 37271.414677711
66	69337 308 2382 5933 196.95514546933 683.66911958782 11 180 180 1980 356400
67	69645 440 2382 5933 196.95514546933 683.66911958782 11 195.95514546933 682.66911958782 4435.245554849 2073452.7273144
68	70085 40 2382 2382 196.95514546933 196.95514546933 1 195.95514546933 195.95514546933 195.95514546933 38398.419035906
69	70125 112 3385 5851 277.01025874348 667.66711123049 4 180 180 720 129600
70	70237 160 3385 5851 277.01025874348 667.66711123049 4 276.01025874348 666.66711123049 2008.4738062776 1117398.4900576
71	70397 40 3385 3385 277.01025874348 277.01025874348 1 276.01025874348 276.01025874348 276.01025874348 76181.662931643
72	70437 196 3475 6431 292.83802892064 745.34387927715 7 180 180 1260 226800
73	70633 280 3475 6431 292.83802892064 745.34387927715 7 291.83802892064 744.34387927715 3477.1907510137 1901135.4647011
74	70913 40 3475 3475 292.83802892064 292.83802892064 1 291.83802892064 291.83802892064 291.83802892064 85169.435124284
75	70953 195 3634 6416 310.44237197124 742.15287621579 7 180 180 1260 226800
76	71148 278 3634 6416 310.44237197124 742.15287621579 7 309.44237197124 741.15287621579 3344.7112476446 1750447.8654964
77	71426 40 3634 3634 310.44237197124 310.44237197124 1 309.44237197124 309.44237197124 309.44237197124 95754.581571187
78	71466 336 3767 6049 349.01342175531 699.70493017211 12 180 180 2160 388800
79	71802 480 3767 6049 349.01342175531 699.70493017211 12 348.01342175531 698.70493017211 6508.2595939556 3681141.7352377
80	72282 40 3767 3767 349.01342175531 349.01342175531 1 348.01342175531 348.01342175531 348.01342175531 121113.34172184
81	72322 195 4639 6255 473.98985121693 716.14908347431 7 180 180 1260 226800
82	72517 278 4639 6255 473.98985121693 716.14908347431 7 472.98985121693 715.14908347431 4320.6889282903 2721606.3661971
83	72795 40 4639 4639 473.98985121693 473.98985121693 1 472.98985121693 472.98985121693 472.98985121693 223719.39935421
84	72835 168 4659 5652 476.97265767019 648.95213998848 6 180 180 1080 194400
85	73003 240 4659 5652 476.97265767019 648.95213998848 6 475.97265767019 647.95213998848 3520.5609244172 2085174.6847017
86	73243 40 4659 4659 476.97265767019 476.97265767019 1 475.97265767019 475.97265767019 475.97265767019 226549.97084962

