file 78239 1780691898                                           
version 3
run General-7-20260605-22:38:15-1048198
attr configname General
attr datetime 20260605-22:38:15
attr datetimef 20260605-223815
attr experiment General
attr inifile Test_MLModel_1.ini
attr iterationvars $0=51904
attr iterationvarsd 51904
attr iterationvarsf 51904-
attr measurement $0=51904
attr network Florasat.Test_Individual.Florasat_Individual_Sats
attr processid 1048198
attr repetition 7
attr replication #7
attr resultdir results
attr runnumber 7
attr seedset 7
config *.satellite[0].NoradModule.raan 185
config *.stats_altitude 670
config *.stats_raan 185
config image-path ../../images:../../../../samples/inet4.5_2/images
config network Florasat.Test_Individual.Florasat_Individual_Sats
config rng-class cMersenneTwister
config *.**.result-recording-modes -
config **.result-recording-modes -
config **.statistic-recording true
config **.scalar-recording true
config **.vector-recording true
config **.vector-record-eventnumbers true
config repeat 10
config seed-0-mt 51904
config sim-time-limit 749s
config simtime-resolution -11
config **.stats_altitude 670
config **.stats_raan 185
config *.radioMedium.backgroundNoise.power -110dBm
config *.radioMedium.mediumLimitCache.centerFrequency 868MHz
config *.radioMedium.mediumLimitCache.maxTransmissionDuration 4s
config *.radioMedium.mediumLimitCache.minInterferenceTime 0s
config **.numSatellites 1
config *.satellite[*].mobilityType "\"Sat_Mob_SatelliteMobility_Standalone\""
config *.satellite[*].noradModuleType "\"Sat_Mob_NoradA\""
config **.satellite[*].**.initFromDisplayString false
config *.satellite[*].mobility.faceForward true
config *.satellite[*].mobility.updateInterval 20s
config *.satellite[*].NoradModule.satName "\"FLoRaSat\""
config *.satellite[*].NoradModule.satIndex -1
config *.satellite[*].NoradModule.baseYear 20
config *.satellite[*].NoradModule.baseDay 1.5
config *.satellite[*].NoradModule.planes 1
config *.satellite[*].NoradModule.satPerPlane 1
config *.satellite[*].NoradModule.eccentricity 0.000001
config *.satellite[*].NoradModule.inclination 98
config *.satellite[*].NoradModule.altitude 670
config *.satellite[0].NoradModule.raan 185
config *.satellite[0].NoradModule.meanAnomaly 195
config *.satellite[*].phyDSL.radio.receiver.enableCollisionOverlap true
config *.satellite[*].phyDSL.radio.receiver.minCollisionOverlap 0s
config *.satellite[*].phyDSL.radio.antenna.typename ConstantGainAntenna
config *.satellite[*].phyDSL.radio.antenna.mobilityModule "\"^.^.^.mobility\""
config *.satellite[*].phyISL.radio.antenna.mobilityModule "\"^.^.^.mobility\""
config *.satellite[*].phyGSL.radio.antenna.mobilityModule "\"^.^.^.mobility\""
config *.satellite[*].phyDSL.radio.antenna.gain 12dB
config *.satellite[*].net.routingType "\"Null_Routing\""
config *.terminal[*].net.routingType "\"Ter_Null_Routing\""
config *.**.numGroundLinks 40
config *.satellite[*].**.interfaceTableModule "\"\""
config **.radioMedium.typename LoRaMedium
config **.radioMedium.analogModel.typename LoRaAnalogModel
config **.intraPlaneIslDisabled false
config **.interPlaneIslDisabled false
config **.numTerminals 30
config *.terminal[*].phy.radio.antenna.mobilityModule "\"^.^.^.mob\""
config *.terminal[*].dlk.mac.interfaceTableModule "\"\""
config *.terminal[*].dlk.energySourceModule "\"\""
config *.terminal[*].dlk.mac.LoRaTP "intuniform(12, 14)"
config *.terminal[*].dlk.mac.LoRaSF "intuniform(10, 12)"
config *.terminal[*].dlk.mac.useMLBox true
config *.terminal[*].dlk.mac.mlBox.modelPath "\"/home/ylnner/Documents/omnet++/omnetpp-6.3.0/projects/florasat_v4_ult_routing/simulations/Test_Individual/mlmodels/bilstm_scripted.pt\""
config **.numberOfPacketsToSend 0
config **.timeToFirstPacket 1s
config **.timeToNextPacket 50s
config *.terminal[0].mob.radius 0.0
config *.terminal[0].mob.centerLatitude 54.978
config *.terminal[0].mob.centerLongitude -1.617
config *.terminal[1].mob.radius 0.0
config *.terminal[1].mob.centerLatitude 52.630
config *.terminal[1].mob.centerLongitude -1.139
config *.terminal[2].mob.radius 0.0
config *.terminal[2].mob.centerLatitude 52.612
config *.terminal[2].mob.centerLongitude -6.295
config *.terminal[3].mob.radius 0.0
config *.terminal[3].mob.centerLatitude 47.243
config *.terminal[3].mob.centerLongitude 6.024
config *.terminal[4].mob.radius 0.0
config *.terminal[4].mob.centerLatitude 43.610
config *.terminal[4].mob.centerLongitude 3.876
config *.terminal[5].mob.radius 0.0
config *.terminal[5].mob.centerLatitude 49.443
config *.terminal[5].mob.centerLongitude 1.099
config *.terminal[6].mob.radius 0.0
config *.terminal[6].mob.centerLatitude 37.992
config *.terminal[6].mob.centerLongitude -1.130
config *.terminal[7].mob.radius 0.0
config *.terminal[7].mob.centerLatitude 40.965
config *.terminal[7].mob.centerLongitude -5.664
config *.terminal[8].mob.radius 0.0
config *.terminal[8].mob.centerLatitude 40.657
config *.terminal[8].mob.centerLongitude -7.914
config *.terminal[9].mob.radius 0.0
config *.terminal[9].mob.centerLatitude 51.340
config *.terminal[9].mob.centerLongitude 12.373
config *.terminal[10].mob.radius 0.0
config *.terminal[10].mob.centerLatitude 51.455
config *.terminal[10].mob.centerLongitude 7.011
config *.terminal[11].mob.radius 0.0
config *.terminal[11].mob.centerLatitude 49.452
config *.terminal[11].mob.centerLongitude 11.076
config *.terminal[12].mob.radius 0.0
config *.terminal[12].mob.centerLatitude 43.769
config *.terminal[12].mob.centerLongitude 11.255
config *.terminal[13].mob.radius 0.0
config *.terminal[13].mob.centerLatitude 41.117
config *.terminal[13].mob.centerLongitude 16.871
config *.terminal[14].mob.radius 0.0
config *.terminal[14].mob.centerLatitude 52.132
config *.terminal[14].mob.centerLongitude 5.291
config *.terminal[15].mob.radius 0.0
config *.terminal[15].mob.centerLatitude 50.411
config *.terminal[15].mob.centerLongitude 4.444
config *.terminal[16].mob.radius 0.0
config *.terminal[16].mob.centerLatitude 47.559
config *.terminal[16].mob.centerLongitude 7.588
config *.terminal[17].mob.radius 0.0
config *.terminal[17].mob.centerLatitude 55.403
config *.terminal[17].mob.centerLongitude 10.402
config *.terminal[18].mob.radius 0.0
config *.terminal[18].mob.centerLatitude 59.858
config *.terminal[18].mob.centerLongitude 17.638
config *.terminal[19].mob.radius 0.0
config *.terminal[19].mob.centerLatitude 60.451
config *.terminal[19].mob.centerLongitude 22.266
config *.terminal[20].mob.radius 0.0
config *.terminal[20].mob.centerLatitude 56.325
config *.terminal[20].mob.centerLongitude 22.349
config *.terminal[21].mob.radius 0.0
config *.terminal[21].mob.centerLatitude 49.883
config *.terminal[21].mob.centerLongitude 18.568
config *.terminal[22].mob.radius 0.0
config *.terminal[22].mob.centerLatitude 47.531
config *.terminal[22].mob.centerLongitude 21.627
config *.terminal[23].mob.radius 0.0
config *.terminal[23].mob.centerLatitude 44.179
config *.terminal[23].mob.centerLongitude 28.649
config *.terminal[24].mob.radius 0.0
config *.terminal[24].mob.centerLatitude 45.327
config *.terminal[24].mob.centerLongitude 14.442
config *.terminal[25].mob.radius 0.0
config *.terminal[25].mob.centerLatitude 40.694
config *.terminal[25].mob.centerLongitude 30.400
config *.terminal[26].mob.radius 0.0
config *.terminal[26].mob.centerLatitude 37.066
config *.terminal[26].mob.centerLongitude 37.383
config *.terminal[27].mob.radius 0.0
config *.terminal[27].mob.centerLatitude 64.836
config *.terminal[27].mob.centerLongitude -23.708
config *.terminal[28].mob.radius 0.0
config *.terminal[28].mob.centerLatitude 28.099
config *.terminal[28].mob.centerLongitude -17.113
config *.terminal[29].mob.radius 0.0
config *.terminal[29].mob.centerLatitude 34.921
config *.terminal[29].mob.centerLongitude 33.623
config **.numStations 3
config **.numStations 3
config *.station[0].mobility.latitude 55.752
config *.station[0].mobility.longitude 37.616
config *.station[0].cityName "\"Moscow\""
config *.station[0].groundStationId 7
config *.station[0].routerAddr "\"10.0.0.29\""
config *.station[0].serving "\"10.0.0.29\""
config *.station[1].mobility.latitude 28.652
config *.station[1].mobility.longitude 77.231
config *.station[1].cityName "\"Delhi\""
config *.station[1].groundStationId 11
config *.station[1].routerAddr "\"10.0.0.45\""
config *.station[1].serving "\"10.0.0.45\""
config *.station[2].mobility.latitude 25.35
config *.station[2].mobility.longitude 51.24
config *.station[2].cityName "\"Katar\""
config *.station[2].groundStationId 19
config *.station[2].routerAddr "\"10.0.0.77\""
config *.station[2].serving "\"10.0.0.77\""
config *.visualizer.canvasVisualizer.mediumVisualizer.typename ""
config *.visualizer.*.radioVisualizer.displayAntennaLobes true
config *.visualizer.*.dataLinkVisualizer.displayLinks true
config *.visualizer.*.mobilityVisualizer.displayMovementTrails true
config *.visualizer.*.mobilityVisualizer.movementTrailLineWidth 1
config *.visualizer.*.mobilityVisualizer.trailLength 3000
config **.ttxStart_max 30s
config **.ttxIdle_min 10s
config **.ttxIdle_max 25s
config **.Ntw 2
config **.Ntx 45
config **.ttwDuration 550s

vector 0 Florasat_Individual_Sats.satellite[0].dlkDSL.mac "Satellite Position when Repetition Received" ETV
vector 1 Florasat_Individual_Sats.satellite[0].dlkDSL.mac "Repetition Position for Node 373 at Satellite" ETV
vector 2 Florasat_Individual_Sats.satellite[0].dlkDSL.mac "All Nodes Repetition Generation Delay at Satellite" ETV
vector 3 Florasat_Individual_Sats.satellite[0].dlkDSL.mac "Repetition Generation Delay for Node 373 at Satellite" ETV
vector 4 Florasat_Individual_Sats.satellite[0].dlkDSL.mac "All Nodes Message Generation Delay at Satellite" ETV
vector 5 Florasat_Individual_Sats.satellite[0].dlkDSL.mac "Message Generation Delay for Node 373 at Satellite" ETV
vector 6 Florasat_Individual_Sats.satellite[0].net.packetHandler "packets received" ETV
vector 7 Florasat_Individual_Sats.satellite[0].net.packetHandler "dropped unroutable" ETV
vector 8 Florasat_Individual_Sats.satellite[0].net.packetHandler "packets dropped" ETV
vector 9 Florasat_Individual_Sats.satellite[0].dlkDSL.mac "Repetition Position for Node 178 at Satellite" ETV
vector 10 Florasat_Individual_Sats.satellite[0].dlkDSL.mac "Repetition Generation Delay for Node 178 at Satellite" ETV
vector 11 Florasat_Individual_Sats.satellite[0].dlkDSL.mac "Message Generation Delay for Node 178 at Satellite" ETV
vector 12 Florasat_Individual_Sats.satellite[0].dlkDSL.mac "Repetition Position for Node 463 at Satellite" ETV
vector 13 Florasat_Individual_Sats.satellite[0].dlkDSL.mac "Repetition Generation Delay for Node 463 at Satellite" ETV
vector 14 Florasat_Individual_Sats.satellite[0].dlkDSL.mac "Message Generation Delay for Node 463 at Satellite" ETV
vector 15 Florasat_Individual_Sats.satellite[0].dlkDSL.mac "Repetition Position for Node 418 at Satellite" ETV
vector 16 Florasat_Individual_Sats.satellite[0].dlkDSL.mac "Repetition Generation Delay for Node 418 at Satellite" ETV
vector 17 Florasat_Individual_Sats.satellite[0].dlkDSL.mac "Message Generation Delay for Node 418 at Satellite" ETV
vector 18 Florasat_Individual_Sats.satellite[0].dlkDSL.mac "Repetition Position for Node 73 at Satellite" ETV
vector 19 Florasat_Individual_Sats.satellite[0].dlkDSL.mac "Repetition Generation Delay for Node 73 at Satellite" ETV
vector 20 Florasat_Individual_Sats.satellite[0].dlkDSL.mac "Message Generation Delay for Node 73 at Satellite" ETV
vector 21 Florasat_Individual_Sats.satellite[0].dlkDSL.mac "Repetition Position for Node 58 at Satellite" ETV
vector 22 Florasat_Individual_Sats.satellite[0].dlkDSL.mac "Repetition Generation Delay for Node 58 at Satellite" ETV
vector 23 Florasat_Individual_Sats.satellite[0].dlkDSL.mac "Message Generation Delay for Node 58 at Satellite" ETV
vector 24 Florasat_Individual_Sats.satellite[0].dlkDSL.mac "Repetition Position for Node 388 at Satellite" ETV
vector 25 Florasat_Individual_Sats.satellite[0].dlkDSL.mac "Repetition Generation Delay for Node 388 at Satellite" ETV
vector 26 Florasat_Individual_Sats.satellite[0].dlkDSL.mac "Message Generation Delay for Node 388 at Satellite" ETV
vector 27 Florasat_Individual_Sats.satellite[0].dlkDSL.mac "Repetition Position for Node 268 at Satellite" ETV
vector 28 Florasat_Individual_Sats.satellite[0].dlkDSL.mac "Repetition Generation Delay for Node 268 at Satellite" ETV
vector 29 Florasat_Individual_Sats.satellite[0].dlkDSL.mac "Message Generation Delay for Node 268 at Satellite" ETV
vector 30 Florasat_Individual_Sats.satellite[0].dlkDSL.mac "Repetition Position for Node 328 at Satellite" ETV
vector 31 Florasat_Individual_Sats.satellite[0].dlkDSL.mac "Repetition Generation Delay for Node 328 at Satellite" ETV
vector 32 Florasat_Individual_Sats.satellite[0].dlkDSL.mac "Message Generation Delay for Node 328 at Satellite" ETV
vector 33 Florasat_Individual_Sats.satellite[0].dlkDSL.mac "Repetition Position for Node 238 at Satellite" ETV
vector 34 Florasat_Individual_Sats.satellite[0].dlkDSL.mac "Repetition Generation Delay for Node 238 at Satellite" ETV
vector 35 Florasat_Individual_Sats.satellite[0].dlkDSL.mac "Message Generation Delay for Node 238 at Satellite" ETV
vector 36 Florasat_Individual_Sats.satellite[0].dlkDSL.mac "Repetition Position for Node 403 at Satellite" ETV
vector 37 Florasat_Individual_Sats.satellite[0].dlkDSL.mac "Repetition Generation Delay for Node 403 at Satellite" ETV
vector 38 Florasat_Individual_Sats.satellite[0].dlkDSL.mac "Message Generation Delay for Node 403 at Satellite" ETV
vector 39 Florasat_Individual_Sats.satellite[0].dlkDSL.mac "Repetition Position for Node 88 at Satellite" ETV
vector 40 Florasat_Individual_Sats.satellite[0].dlkDSL.mac "Repetition Generation Delay for Node 88 at Satellite" ETV
vector 41 Florasat_Individual_Sats.satellite[0].dlkDSL.mac "Message Generation Delay for Node 88 at Satellite" ETV
vector 42 Florasat_Individual_Sats.satellite[0].dlkDSL.mac "Repetition Position for Node 163 at Satellite" ETV
vector 43 Florasat_Individual_Sats.satellite[0].dlkDSL.mac "Repetition Generation Delay for Node 163 at Satellite" ETV
vector 44 Florasat_Individual_Sats.satellite[0].dlkDSL.mac "Message Generation Delay for Node 163 at Satellite" ETV
vector 45 Florasat_Individual_Sats.satellite[0].dlkDSL.mac "Repetition Position for Node 103 at Satellite" ETV
vector 46 Florasat_Individual_Sats.satellite[0].dlkDSL.mac "Repetition Generation Delay for Node 103 at Satellite" ETV
vector 47 Florasat_Individual_Sats.satellite[0].dlkDSL.mac "Message Generation Delay for Node 103 at Satellite" ETV
vector 48 Florasat_Individual_Sats.satellite[0].dlkDSL.mac "Repetition Position for Node 313 at Satellite" ETV
vector 49 Florasat_Individual_Sats.satellite[0].dlkDSL.mac "Repetition Generation Delay for Node 313 at Satellite" ETV
vector 50 Florasat_Individual_Sats.satellite[0].dlkDSL.mac "Message Generation Delay for Node 313 at Satellite" ETV
vector 51 Florasat_Individual_Sats.satellite[0].dlkDSL.mac "Repetition Position for Node 133 at Satellite" ETV
vector 52 Florasat_Individual_Sats.satellite[0].dlkDSL.mac "Repetition Generation Delay for Node 133 at Satellite" ETV
vector 53 Florasat_Individual_Sats.satellite[0].dlkDSL.mac "Message Generation Delay for Node 133 at Satellite" ETV
vector 54 Florasat_Individual_Sats.satellite[0].dlkDSL.mac "Repetition Position for Node 343 at Satellite" ETV
vector 55 Florasat_Individual_Sats.satellite[0].dlkDSL.mac "Repetition Generation Delay for Node 343 at Satellite" ETV
vector 56 Florasat_Individual_Sats.satellite[0].dlkDSL.mac "Message Generation Delay for Node 343 at Satellite" ETV
vector 57 Florasat_Individual_Sats.satellite[0].dlkDSL.mac "Repetition Position for Node 208 at Satellite" ETV
vector 58 Florasat_Individual_Sats.satellite[0].dlkDSL.mac "Repetition Generation Delay for Node 208 at Satellite" ETV
vector 59 Florasat_Individual_Sats.satellite[0].dlkDSL.mac "Message Generation Delay for Node 208 at Satellite" ETV
vector 60 Florasat_Individual_Sats.satellite[0].dlkDSL.mac "Repetition Position for Node 358 at Satellite" ETV
vector 61 Florasat_Individual_Sats.satellite[0].dlkDSL.mac "Repetition Generation Delay for Node 358 at Satellite" ETV
vector 62 Florasat_Individual_Sats.satellite[0].dlkDSL.mac "Message Generation Delay for Node 358 at Satellite" ETV
vector 63 Florasat_Individual_Sats.satellite[0].dlkDSL.mac "Repetition Position for Node 223 at Satellite" ETV
vector 64 Florasat_Individual_Sats.satellite[0].dlkDSL.mac "Repetition Generation Delay for Node 223 at Satellite" ETV
vector 65 Florasat_Individual_Sats.satellite[0].dlkDSL.mac "Message Generation Delay for Node 223 at Satellite" ETV
vector 66 Florasat_Individual_Sats.satellite[0].dlkDSL.mac "Repetition Position for Node 253 at Satellite" ETV
vector 67 Florasat_Individual_Sats.satellite[0].dlkDSL.mac "Repetition Generation Delay for Node 253 at Satellite" ETV
vector 68 Florasat_Individual_Sats.satellite[0].dlkDSL.mac "Message Generation Delay for Node 253 at Satellite" ETV
vector 69 Florasat_Individual_Sats.satellite[0].dlkDSL.mac "Repetition Position for Node 298 at Satellite" ETV
vector 70 Florasat_Individual_Sats.satellite[0].dlkDSL.mac "Repetition Generation Delay for Node 298 at Satellite" ETV
vector 71 Florasat_Individual_Sats.satellite[0].dlkDSL.mac "Message Generation Delay for Node 298 at Satellite" ETV
vector 72 Florasat_Individual_Sats.satellite[0].dlkDSL.mac "Repetition Position for Node 283 at Satellite" ETV
vector 73 Florasat_Individual_Sats.satellite[0].dlkDSL.mac "Repetition Generation Delay for Node 283 at Satellite" ETV
vector 74 Florasat_Individual_Sats.satellite[0].dlkDSL.mac "Message Generation Delay for Node 283 at Satellite" ETV
vector 75 Florasat_Individual_Sats.satellite[0].dlkDSL.mac "Repetition Position for Node 433 at Satellite" ETV
vector 76 Florasat_Individual_Sats.satellite[0].dlkDSL.mac "Repetition Generation Delay for Node 433 at Satellite" ETV
vector 77 Florasat_Individual_Sats.satellite[0].dlkDSL.mac "Message Generation Delay for Node 433 at Satellite" ETV
vector 78 Florasat_Individual_Sats.satellite[0].dlkDSL.mac "Repetition Position for Node 118 at Satellite" ETV
vector 79 Florasat_Individual_Sats.satellite[0].dlkDSL.mac "Repetition Generation Delay for Node 118 at Satellite" ETV
vector 80 Florasat_Individual_Sats.satellite[0].dlkDSL.mac "Message Generation Delay for Node 118 at Satellite" ETV
vector 81 Florasat_Individual_Sats.satellite[0].dlkDSL.mac "Repetition Position for Node 193 at Satellite" ETV
vector 82 Florasat_Individual_Sats.satellite[0].dlkDSL.mac "Repetition Generation Delay for Node 193 at Satellite" ETV
vector 83 Florasat_Individual_Sats.satellite[0].dlkDSL.mac "Message Generation Delay for Node 193 at Satellite" ETV
vector 84 Florasat_Individual_Sats.satellite[0].dlkDSL.mac "Repetition Position for Node 148 at Satellite" ETV
vector 85 Florasat_Individual_Sats.satellite[0].dlkDSL.mac "Repetition Generation Delay for Node 148 at Satellite" ETV
vector 86 Florasat_Individual_Sats.satellite[0].dlkDSL.mac "Message Generation Delay for Node 148 at Satellite" ETV
vector 87 Florasat_Individual_Sats.satellite[0].dlkDSL.mac "Repetition Position for Node 448 at Satellite" ETV
vector 88 Florasat_Individual_Sats.satellite[0].dlkDSL.mac "Repetition Generation Delay for Node 448 at Satellite" ETV
vector 89 Florasat_Individual_Sats.satellite[0].dlkDSL.mac "Message Generation Delay for Node 448 at Satellite" ETV
vector 90 Florasat_Individual_Sats.satellite[0].dlkDSL.mac "Repetition Position for Node 478 at Satellite" ETV
vector 91 Florasat_Individual_Sats.satellite[0].dlkDSL.mac "Repetition Generation Delay for Node 478 at Satellite" ETV
vector 92 Florasat_Individual_Sats.satellite[0].dlkDSL.mac "Message Generation Delay for Node 478 at Satellite" ETV
0	19667 7132 127 6416 3.11208337293 747.58494635093 267 180 180 48060 8650800
1	26799 158 127 6282 3.11208337293 726.27469326118 6 180 180 1080 194400
2	26957 10278 127 6416 3.11208337293 747.58494635093 267 2.11208337293 746.58494635093 90900.416900685 41978860.724717
3	37235 227 127 6282 3.11208337293 726.27469326118 6 2.11208337293 725.27469326118 1839.1333755592 943531.63908163
4	37462 1071 127 4727 3.11208337293 499.04105581638 29 2.11208337293 498.04105581638 3434.6126173047 731649.01281221
5	38533 34 127 127 3.11208337293 3.11208337293 1 2.11208337293 2.11208337293 2.11208337293 4.4608961742074
6	38567 7024 128 6417 3.11208337293 747.58494635093 267 1 267 35778 6380410
7	45591 7024 128 6417 3.11208337293 747.58494635093 267 1 267 35778 6380410
8	52615 7024 128 6417 3.11208337293 747.58494635093 267 1 267 35778 6380410
9	59639 345 158 6303 10.89437517783 729.85946537093 13 180 180 2340 421200
10	59984 509 158 6303 10.89437517783 729.85946537093 13 9.89437517783 728.85946537093 5266.6770329503 2866895.4363086
11	60493 36 158 158 10.89437517783 10.89437517783 1 9.89437517783 9.89437517783 9.89437517783 97.898660159658
12	60529 215 174 3211 12.54467019173 255.23784744148 8 180 180 1440 259200
13	60744 305 174 3211 12.54467019173 255.23784744148 8 11.54467019173 254.23784744148 1092.1564396198 205134.7525
14	61049 37 174 174 12.54467019173 12.54467019173 1 11.54467019173 11.54467019173 11.54467019173 133.27940983582
15	61086 81 369 4533 33.8140510789 461.13562277148 3 180 180 540 97200
16	61167 115 369 4533 33.8140510789 461.13562277148 3 32.8140510789 460.13562277148 737.25533958742 272486.81160272
17	61282 35 369 369 33.8140510789 33.8140510789 1 32.8140510789 32.8140510789 32.8140510789 1076.7619482087
18	61317 412 386 5513 35.43325120227 614.24708575121 15 180 180 2700 486000
19	61729 587 386 5513 35.43325120227 614.24708575121 15 34.43325120227 613.24708575121 3847.1161237501 1505701.6229524
20	62316 37 386 386 35.43325120227 35.43325120227 1 34.43325120227 34.43325120227 34.43325120227 1185.6487883586
21	62353 191 460 4045 43.5709240247 387.0693569194 7 180 180 1260 226800
22	62544 271 460 4045 43.5709240247 387.0693569194 7 42.5709240247 386.0693569194 1593.4931817805 451990.23312331
23	62815 35 460 460 43.5709240247 43.5709240247 1 42.5709240247 42.5709240247 42.5709240247 1812.2835723168
24	62850 166 489 5177 46.98199041247 551.12191460737 6 180 180 1080 194400
25	63016 237 489 5177 46.98199041247 551.12191460737 6 45.98199041247 550.12191460737 1846.5178470952 768962.65457151
26	63253 37 489 489 46.98199041247 46.98199041247 1 45.98199041247 45.98199041247 45.98199041247 2114.3434422925
27	63290 388 523 4963 49.21634239371 536.45939892385 14 180 180 2520 453600
28	63678 554 523 4963 49.21634239371 536.45939892385 14 48.21634239371 535.45939892385 3925.4459317977 1416985.3339415
29	64232 37 523 523 49.21634239371 49.21634239371 1 48.21634239371 48.21634239371 48.21634239371 2324.8156738275
30	64269 359 753 3952 65.2122739945 365.94914693365 13 180 180 2340 421200
31	64628 512 753 3952 65.2122739945 365.94914693365 13 64.2122739945 364.94914693365 2399.8148201408 530759.25062504
32	65140 35 753 753 65.2122739945 65.2122739945 1 64.2122739945 64.2122739945 64.2122739945 4123.2161315447
33	65175 359 762 6366 66.30862878696 739.73741852039 13 180 180 2340 421200
34	65534 511 762 6366 66.30862878696 739.73741852039 13 65.30862878696 738.73741852039 5133.7707207655 2866459.3247972
35	66045 37 762 762 66.30862878696 66.30862878696 1 65.30862878696 65.30862878696 65.30862878696 4265.2169940329
36	66082 137 835 6030 72.43261764737 693.66792425027 5 180 180 900 162000
37	66219 195 835 6030 72.43261764737 693.66792425027 5 71.43261764737 692.66792425027 1291.9727622882 590526.59753048
38	66414 37 835 835 72.43261764737 72.43261764737 1 71.43261764737 71.43261764737 71.43261764737 5102.6188639554
39	66451 500 891 6018 76.87768613746 692.16306763877 18 180 180 3240 583200
40	66951 713 891 6018 76.87768613746 692.16306763877 18 75.87768613746 691.16306763877 7226.436369323 3607436.0345217
41	67664 37 891 891 76.87768613746 76.87768613746 1 75.87768613746 75.87768613746 75.87768613746 5757.4232535749
42	67701 333 928 6338 80.69970294814 736.9505963787 12 180 180 2160 388800
43	68034 475 928 6338 80.69970294814 736.9505963787 12 79.69970294814 735.9505963787 6546.0972168467 4005963.2977672
44	68509 37 928 928 80.69970294814 80.69970294814 1 79.69970294814 79.69970294814 79.69970294814 6352.0426500218
45	68546 137 972 4277 84.65983265175 419.72238568334 5 180 180 900 162000
46	68683 195 972 4277 84.65983265175 419.72238568334 5 83.65983265175 418.72238568334 1302.0466325642 396184.93043091
47	68878 37 972 972 84.65983265175 84.65983265175 1 83.65983265175 83.65983265175 83.65983265175 6998.9675993188
48	68915 307 1027 4541 89.46314274793 463.18625668522 11 180 180 1980 356400
49	69222 438 1027 4541 89.46314274793 463.18625668522 11 88.46314274793 462.18625668522 2491.4106579126 685283.32718447
50	69660 38 1027 1027 89.46314274793 89.46314274793 1 88.46314274793 88.46314274793 88.46314274793 7825.7276248406
51	69698 334 1078 6002 93.50478493319 690.85005402624 12 180 180 2160 388800
52	70032 476 1078 6002 93.50478493319 690.85005402624 12 92.50478493319 689.85005402624 5351.0147786393 2884712.2479567
53	70508 38 1078 1078 93.50478493319 93.50478493319 1 92.50478493319 92.50478493319 92.50478493319 8557.1352355357
54	70546 391 1117 4897 95.32634800746 525.18295350697 14 180 180 2520 453600
55	70937 558 1117 4897 95.32634800746 525.18295350697 14 94.32634800746 524.18295350697 3624.1073797734 1191463.1181952
56	71495 38 1117 1117 95.32634800746 95.32634800746 1 94.32634800746 94.32634800746 94.32634800746 8897.4599284245
57	71533 167 1155 4949 100.32147906818 533.0819074342 6 180 180 1080 194400
58	71700 237 1155 4949 100.32147906818 533.0819074342 6 99.32147906818 532.0819074342 1740.673083927 617120.60821641
59	71937 39 1155 1155 100.32147906818 100.32147906818 1 99.32147906818 99.32147906818 99.32147906818 9864.7562042909
60	71976 307 1275 3499 103.63823851397 291.40265283584 11 180 180 1980 356400
61	72283 438 1275 3499 103.63823851397 291.40265283584 11 102.63823851397 290.40265283584 2130.5164361296 454863.47522517
62	72721 40 1275 1275 103.63823851397 103.63823851397 1 102.63823851397 102.63823851397 102.63823851397 10534.608005251
63	72761 280 1461 4936 121.62752268946 531.49698034738 10 180 180 1800 324000
64	73041 400 1461 4936 121.62752268946 531.49698034738 10 120.62752268946 530.49698034738 2683.6833606607 880158.76372786
65	73441 40 1461 1461 121.62752268946 121.62752268946 1 120.62752268946 120.62752268946 120.62752268946 14550.999230196
66	73481 249 1474 6183 122.45037886141 707.29368906876 9 180 180 1620 291600
67	73730 354 1474 6183 122.45037886141 707.29368906876 9 121.45037886141 706.29368906876 4029.7560569397 2205783.1993331
68	74084 40 1474 1474 122.45037886141 122.45037886141 1 121.45037886141 121.45037886141 121.45037886141 14750.19452558
69	74124 279 1894 5943 154.13076645689 681.2302677973 10 180 180 1800 324000
70	74403 398 1894 5943 154.13076645689 681.2302677973 10 153.13076645689 680.2302677973 4656.6771910253 2504166.0675047
71	74801 40 1894 1894 154.13076645689 154.13076645689 1 153.13076645689 153.13076645689 153.13076645689 23449.031635675
72	74841 111 2054 2944 167.8257674479 239.42517666723 4 180 180 720 129600
73	74952 158 2054 2944 167.8257674479 239.42517666723 4 166.8257674479 238.42517666723 822.73280167142 171885.99624656
74	75110 38 2054 2054 167.8257674479 167.8257674479 1 166.8257674479 166.8257674479 166.8257674479 27830.836684581
75	75148 140 2303 4584 189.04886075706 469.74344846736 5 180 180 900 162000
76	75288 200 2303 4584 189.04886075706 469.74344846736 5 188.04886075706 468.74344846736 1731.4356410347 670184.62748613
77	75488 40 2303 2303 189.04886075706 189.04886075706 1 188.04886075706 188.04886075706 188.04886075706 35362.374032028
78	75528 196 2742 6416 221.60879484475 747.58494635093 7 180 180 1260 226800
79	75724 280 2742 6416 221.60879484475 747.58494635093 7 220.60879484475 746.58494635093 3335.301274199 1782530.5390369
80	76004 40 2742 2742 221.60879484475 221.60879484475 1 220.60879484475 220.60879484475 220.60879484475 48668.240362853
81	76044 168 2759 5260 223.50486223331 579.47683386485 6 180 180 1080 194400
82	76212 240 2759 5260 223.50486223331 579.47683386485 6 222.50486223331 578.47683386485 2118.9978703341 850447.11071229
83	76452 40 2759 2759 223.50486223331 223.50486223331 1 222.50486223331 222.50486223331 222.50486223331 49508.413717464
84	76492 308 3258 6409 258.72803285312 746.96855409247 11 180 180 1980 356400
85	76800 440 3258 6409 258.72803285312 746.96855409247 11 257.72803285312 745.96855409247 5194.5499207481 2760600.7087931
86	77240 40 3258 3258 258.72803285312 258.72803285312 1 257.72803285312 257.72803285312 257.72803285312 66423.738918339
87	77280 139 3763 4652 341.63415205296 478.36004306426 5 180 180 900 162000
88	77419 198 3763 4652 341.63415205296 478.36004306426 5 340.63415205296 477.36004306426 2044.3232381741 845518.53586355
89	77617 40 3763 3763 341.63415205296 341.63415205296 1 340.63415205296 340.63415205296 340.63415205296 116031.62554484
90	77657 223 4727 6315 499.04105581638 731.05710619071 8 180 180 1440 259200
91	77880 318 4727 6315 499.04105581638 731.05710619071 8 498.04105581638 730.05710619071 4897.3034154467 3045124.4794806
92	78198 40 4727 4727 499.04105581638 499.04105581638 1 498.04105581638 498.04105581638 498.04105581638 248044.89327869

