file 75705 1780691876                                           
version 3
run General-0-20260605-22:37:52-1048198
attr configname General
attr datetime 20260605-22:37:52
attr datetimef 20260605-223752
attr experiment General
attr inifile Test_MLModel_1.ini
attr iterationvars $0=23542
attr iterationvarsd 23542
attr iterationvarsf 23542-
attr measurement $0=23542
attr network Florasat.Test_Individual.Florasat_Individual_Sats
attr processid 1048198
attr repetition 0
attr replication #0
attr resultdir results
attr runnumber 0
attr seedset 0
config *.satellite[0].NoradModule.raan 185
config *.stats_altitude 670
config *.stats_raan 185
config image-path ../../images:../../../../samples/inet4.5_2/images
config network Florasat.Test_Individual.Florasat_Individual_Sats
config rng-class cMersenneTwister
config *.**.result-recording-modes -
config **.result-recording-modes -
config **.statistic-recording true
config **.scalar-recording true
config **.vector-recording true
config **.vector-record-eventnumbers true
config repeat 10
config seed-0-mt 23542
config sim-time-limit 749s
config simtime-resolution -11
config **.stats_altitude 670
config **.stats_raan 185
config *.radioMedium.backgroundNoise.power -110dBm
config *.radioMedium.mediumLimitCache.centerFrequency 868MHz
config *.radioMedium.mediumLimitCache.maxTransmissionDuration 4s
config *.radioMedium.mediumLimitCache.minInterferenceTime 0s
config **.numSatellites 1
config *.satellite[*].mobilityType "\"Sat_Mob_SatelliteMobility_Standalone\""
config *.satellite[*].noradModuleType "\"Sat_Mob_NoradA\""
config **.satellite[*].**.initFromDisplayString false
config *.satellite[*].mobility.faceForward true
config *.satellite[*].mobility.updateInterval 20s
config *.satellite[*].NoradModule.satName "\"FLoRaSat\""
config *.satellite[*].NoradModule.satIndex -1
config *.satellite[*].NoradModule.baseYear 20
config *.satellite[*].NoradModule.baseDay 1.5
config *.satellite[*].NoradModule.planes 1
config *.satellite[*].NoradModule.satPerPlane 1
config *.satellite[*].NoradModule.eccentricity 0.000001
config *.satellite[*].NoradModule.inclination 98
config *.satellite[*].NoradModule.altitude 670
config *.satellite[0].NoradModule.raan 185
config *.satellite[0].NoradModule.meanAnomaly 195
config *.satellite[*].phyDSL.radio.receiver.enableCollisionOverlap true
config *.satellite[*].phyDSL.radio.receiver.minCollisionOverlap 0s
config *.satellite[*].phyDSL.radio.antenna.typename ConstantGainAntenna
config *.satellite[*].phyDSL.radio.antenna.mobilityModule "\"^.^.^.mobility\""
config *.satellite[*].phyISL.radio.antenna.mobilityModule "\"^.^.^.mobility\""
config *.satellite[*].phyGSL.radio.antenna.mobilityModule "\"^.^.^.mobility\""
config *.satellite[*].phyDSL.radio.antenna.gain 12dB
config *.satellite[*].net.routingType "\"Null_Routing\""
config *.terminal[*].net.routingType "\"Ter_Null_Routing\""
config *.**.numGroundLinks 40
config *.satellite[*].**.interfaceTableModule "\"\""
config **.radioMedium.typename LoRaMedium
config **.radioMedium.analogModel.typename LoRaAnalogModel
config **.intraPlaneIslDisabled false
config **.interPlaneIslDisabled false
config **.numTerminals 30
config *.terminal[*].phy.radio.antenna.mobilityModule "\"^.^.^.mob\""
config *.terminal[*].dlk.mac.interfaceTableModule "\"\""
config *.terminal[*].dlk.energySourceModule "\"\""
config *.terminal[*].dlk.mac.LoRaTP "intuniform(12, 14)"
config *.terminal[*].dlk.mac.LoRaSF "intuniform(10, 12)"
config *.terminal[*].dlk.mac.useMLBox true
config *.terminal[*].dlk.mac.mlBox.modelPath "\"/home/ylnner/Documents/omnet++/omnetpp-6.3.0/projects/florasat_v4_ult_routing/simulations/Test_Individual/mlmodels/bilstm_scripted.pt\""
config **.numberOfPacketsToSend 0
config **.timeToFirstPacket 1s
config **.timeToNextPacket 50s
config *.terminal[0].mob.radius 0.0
config *.terminal[0].mob.centerLatitude 54.978
config *.terminal[0].mob.centerLongitude -1.617
config *.terminal[1].mob.radius 0.0
config *.terminal[1].mob.centerLatitude 52.630
config *.terminal[1].mob.centerLongitude -1.139
config *.terminal[2].mob.radius 0.0
config *.terminal[2].mob.centerLatitude 52.612
config *.terminal[2].mob.centerLongitude -6.295
config *.terminal[3].mob.radius 0.0
config *.terminal[3].mob.centerLatitude 47.243
config *.terminal[3].mob.centerLongitude 6.024
config *.terminal[4].mob.radius 0.0
config *.terminal[4].mob.centerLatitude 43.610
config *.terminal[4].mob.centerLongitude 3.876
config *.terminal[5].mob.radius 0.0
config *.terminal[5].mob.centerLatitude 49.443
config *.terminal[5].mob.centerLongitude 1.099
config *.terminal[6].mob.radius 0.0
config *.terminal[6].mob.centerLatitude 37.992
config *.terminal[6].mob.centerLongitude -1.130
config *.terminal[7].mob.radius 0.0
config *.terminal[7].mob.centerLatitude 40.965
config *.terminal[7].mob.centerLongitude -5.664
config *.terminal[8].mob.radius 0.0
config *.terminal[8].mob.centerLatitude 40.657
config *.terminal[8].mob.centerLongitude -7.914
config *.terminal[9].mob.radius 0.0
config *.terminal[9].mob.centerLatitude 51.340
config *.terminal[9].mob.centerLongitude 12.373
config *.terminal[10].mob.radius 0.0
config *.terminal[10].mob.centerLatitude 51.455
config *.terminal[10].mob.centerLongitude 7.011
config *.terminal[11].mob.radius 0.0
config *.terminal[11].mob.centerLatitude 49.452
config *.terminal[11].mob.centerLongitude 11.076
config *.terminal[12].mob.radius 0.0
config *.terminal[12].mob.centerLatitude 43.769
config *.terminal[12].mob.centerLongitude 11.255
config *.terminal[13].mob.radius 0.0
config *.terminal[13].mob.centerLatitude 41.117
config *.terminal[13].mob.centerLongitude 16.871
config *.terminal[14].mob.radius 0.0
config *.terminal[14].mob.centerLatitude 52.132
config *.terminal[14].mob.centerLongitude 5.291
config *.terminal[15].mob.radius 0.0
config *.terminal[15].mob.centerLatitude 50.411
config *.terminal[15].mob.centerLongitude 4.444
config *.terminal[16].mob.radius 0.0
config *.terminal[16].mob.centerLatitude 47.559
config *.terminal[16].mob.centerLongitude 7.588
config *.terminal[17].mob.radius 0.0
config *.terminal[17].mob.centerLatitude 55.403
config *.terminal[17].mob.centerLongitude 10.402
config *.terminal[18].mob.radius 0.0
config *.terminal[18].mob.centerLatitude 59.858
config *.terminal[18].mob.centerLongitude 17.638
config *.terminal[19].mob.radius 0.0
config *.terminal[19].mob.centerLatitude 60.451
config *.terminal[19].mob.centerLongitude 22.266
config *.terminal[20].mob.radius 0.0
config *.terminal[20].mob.centerLatitude 56.325
config *.terminal[20].mob.centerLongitude 22.349
config *.terminal[21].mob.radius 0.0
config *.terminal[21].mob.centerLatitude 49.883
config *.terminal[21].mob.centerLongitude 18.568
config *.terminal[22].mob.radius 0.0
config *.terminal[22].mob.centerLatitude 47.531
config *.terminal[22].mob.centerLongitude 21.627
config *.terminal[23].mob.radius 0.0
config *.terminal[23].mob.centerLatitude 44.179
config *.terminal[23].mob.centerLongitude 28.649
config *.terminal[24].mob.radius 0.0
config *.terminal[24].mob.centerLatitude 45.327
config *.terminal[24].mob.centerLongitude 14.442
config *.terminal[25].mob.radius 0.0
config *.terminal[25].mob.centerLatitude 40.694
config *.terminal[25].mob.centerLongitude 30.400
config *.terminal[26].mob.radius 0.0
config *.terminal[26].mob.centerLatitude 37.066
config *.terminal[26].mob.centerLongitude 37.383
config *.terminal[27].mob.radius 0.0
config *.terminal[27].mob.centerLatitude 64.836
config *.terminal[27].mob.centerLongitude -23.708
config *.terminal[28].mob.radius 0.0
config *.terminal[28].mob.centerLatitude 28.099
config *.terminal[28].mob.centerLongitude -17.113
config *.terminal[29].mob.radius 0.0
config *.terminal[29].mob.centerLatitude 34.921
config *.terminal[29].mob.centerLongitude 33.623
config **.numStations 3
config **.numStations 3
config *.station[0].mobility.latitude 55.752
config *.station[0].mobility.longitude 37.616
config *.station[0].cityName "\"Moscow\""
config *.station[0].groundStationId 7
config *.station[0].routerAddr "\"10.0.0.29\""
config *.station[0].serving "\"10.0.0.29\""
config *.station[1].mobility.latitude 28.652
config *.station[1].mobility.longitude 77.231
config *.station[1].cityName "\"Delhi\""
config *.station[1].groundStationId 11
config *.station[1].routerAddr "\"10.0.0.45\""
config *.station[1].serving "\"10.0.0.45\""
config *.station[2].mobility.latitude 25.35
config *.station[2].mobility.longitude 51.24
config *.station[2].cityName "\"Katar\""
config *.station[2].groundStationId 19
config *.station[2].routerAddr "\"10.0.0.77\""
config *.station[2].serving "\"10.0.0.77\""
config *.visualizer.canvasVisualizer.mediumVisualizer.typename ""
config *.visualizer.*.radioVisualizer.displayAntennaLobes true
config *.visualizer.*.dataLinkVisualizer.displayLinks true
config *.visualizer.*.mobilityVisualizer.displayMovementTrails true
config *.visualizer.*.mobilityVisualizer.movementTrailLineWidth 1
config *.visualizer.*.mobilityVisualizer.trailLength 3000
config **.ttxStart_max 30s
config **.ttxIdle_min 10s
config **.ttxIdle_max 25s
config **.Ntw 2
config **.Ntx 45
config **.ttwDuration 550s

vector 0 Florasat_Individual_Sats.satellite[0].dlkDSL.mac "Satellite Position when Repetition Received" ETV
vector 1 Florasat_Individual_Sats.satellite[0].dlkDSL.mac "Repetition Position for Node 358 at Satellite" ETV
vector 2 Florasat_Individual_Sats.satellite[0].dlkDSL.mac "All Nodes Repetition Generation Delay at Satellite" ETV
vector 3 Florasat_Individual_Sats.satellite[0].dlkDSL.mac "Repetition Generation Delay for Node 358 at Satellite" ETV
vector 4 Florasat_Individual_Sats.satellite[0].dlkDSL.mac "All Nodes Message Generation Delay at Satellite" ETV
vector 5 Florasat_Individual_Sats.satellite[0].dlkDSL.mac "Message Generation Delay for Node 358 at Satellite" ETV
vector 6 Florasat_Individual_Sats.satellite[0].net.packetHandler "packets received" ETV
vector 7 Florasat_Individual_Sats.satellite[0].net.packetHandler "dropped unroutable" ETV
vector 8 Florasat_Individual_Sats.satellite[0].net.packetHandler "packets dropped" ETV
vector 9 Florasat_Individual_Sats.satellite[0].dlkDSL.mac "Repetition Position for Node 103 at Satellite" ETV
vector 10 Florasat_Individual_Sats.satellite[0].dlkDSL.mac "Repetition Generation Delay for Node 103 at Satellite" ETV
vector 11 Florasat_Individual_Sats.satellite[0].dlkDSL.mac "Message Generation Delay for Node 103 at Satellite" ETV
vector 12 Florasat_Individual_Sats.satellite[0].dlkDSL.mac "Repetition Position for Node 58 at Satellite" ETV
vector 13 Florasat_Individual_Sats.satellite[0].dlkDSL.mac "Repetition Generation Delay for Node 58 at Satellite" ETV
vector 14 Florasat_Individual_Sats.satellite[0].dlkDSL.mac "Message Generation Delay for Node 58 at Satellite" ETV
vector 15 Florasat_Individual_Sats.satellite[0].dlkDSL.mac "Repetition Position for Node 223 at Satellite" ETV
vector 16 Florasat_Individual_Sats.satellite[0].dlkDSL.mac "Repetition Generation Delay for Node 223 at Satellite" ETV
vector 17 Florasat_Individual_Sats.satellite[0].dlkDSL.mac "Message Generation Delay for Node 223 at Satellite" ETV
vector 18 Florasat_Individual_Sats.satellite[0].dlkDSL.mac "Repetition Position for Node 463 at Satellite" ETV
vector 19 Florasat_Individual_Sats.satellite[0].dlkDSL.mac "Repetition Generation Delay for Node 463 at Satellite" ETV
vector 20 Florasat_Individual_Sats.satellite[0].dlkDSL.mac "Message Generation Delay for Node 463 at Satellite" ETV
vector 21 Florasat_Individual_Sats.satellite[0].dlkDSL.mac "Repetition Position for Node 253 at Satellite" ETV
vector 22 Florasat_Individual_Sats.satellite[0].dlkDSL.mac "Repetition Generation Delay for Node 253 at Satellite" ETV
vector 23 Florasat_Individual_Sats.satellite[0].dlkDSL.mac "Message Generation Delay for Node 253 at Satellite" ETV
vector 24 Florasat_Individual_Sats.satellite[0].dlkDSL.mac "Repetition Position for Node 388 at Satellite" ETV
vector 25 Florasat_Individual_Sats.satellite[0].dlkDSL.mac "Repetition Generation Delay for Node 388 at Satellite" ETV
vector 26 Florasat_Individual_Sats.satellite[0].dlkDSL.mac "Message Generation Delay for Node 388 at Satellite" ETV
vector 27 Florasat_Individual_Sats.satellite[0].dlkDSL.mac "Repetition Position for Node 343 at Satellite" ETV
vector 28 Florasat_Individual_Sats.satellite[0].dlkDSL.mac "Repetition Generation Delay for Node 343 at Satellite" ETV
vector 29 Florasat_Individual_Sats.satellite[0].dlkDSL.mac "Message Generation Delay for Node 343 at Satellite" ETV
vector 30 Florasat_Individual_Sats.satellite[0].dlkDSL.mac "Repetition Position for Node 403 at Satellite" ETV
vector 31 Florasat_Individual_Sats.satellite[0].dlkDSL.mac "Repetition Generation Delay for Node 403 at Satellite" ETV
vector 32 Florasat_Individual_Sats.satellite[0].dlkDSL.mac "Message Generation Delay for Node 403 at Satellite" ETV
vector 33 Florasat_Individual_Sats.satellite[0].dlkDSL.mac "Repetition Position for Node 193 at Satellite" ETV
vector 34 Florasat_Individual_Sats.satellite[0].dlkDSL.mac "Repetition Generation Delay for Node 193 at Satellite" ETV
vector 35 Florasat_Individual_Sats.satellite[0].dlkDSL.mac "Message Generation Delay for Node 193 at Satellite" ETV
vector 36 Florasat_Individual_Sats.satellite[0].dlkDSL.mac "Repetition Position for Node 268 at Satellite" ETV
vector 37 Florasat_Individual_Sats.satellite[0].dlkDSL.mac "Repetition Generation Delay for Node 268 at Satellite" ETV
vector 38 Florasat_Individual_Sats.satellite[0].dlkDSL.mac "Message Generation Delay for Node 268 at Satellite" ETV
vector 39 Florasat_Individual_Sats.satellite[0].dlkDSL.mac "Repetition Position for Node 328 at Satellite" ETV
vector 40 Florasat_Individual_Sats.satellite[0].dlkDSL.mac "Repetition Generation Delay for Node 328 at Satellite" ETV
vector 41 Florasat_Individual_Sats.satellite[0].dlkDSL.mac "Message Generation Delay for Node 328 at Satellite" ETV
vector 42 Florasat_Individual_Sats.satellite[0].dlkDSL.mac "Repetition Position for Node 88 at Satellite" ETV
vector 43 Florasat_Individual_Sats.satellite[0].dlkDSL.mac "Repetition Generation Delay for Node 88 at Satellite" ETV
vector 44 Florasat_Individual_Sats.satellite[0].dlkDSL.mac "Message Generation Delay for Node 88 at Satellite" ETV
vector 45 Florasat_Individual_Sats.satellite[0].dlkDSL.mac "Repetition Position for Node 313 at Satellite" ETV
vector 46 Florasat_Individual_Sats.satellite[0].dlkDSL.mac "Repetition Generation Delay for Node 313 at Satellite" ETV
vector 47 Florasat_Individual_Sats.satellite[0].dlkDSL.mac "Message Generation Delay for Node 313 at Satellite" ETV
vector 48 Florasat_Individual_Sats.satellite[0].dlkDSL.mac "Repetition Position for Node 208 at Satellite" ETV
vector 49 Florasat_Individual_Sats.satellite[0].dlkDSL.mac "Repetition Generation Delay for Node 208 at Satellite" ETV
vector 50 Florasat_Individual_Sats.satellite[0].dlkDSL.mac "Message Generation Delay for Node 208 at Satellite" ETV
vector 51 Florasat_Individual_Sats.satellite[0].dlkDSL.mac "Repetition Position for Node 73 at Satellite" ETV
vector 52 Florasat_Individual_Sats.satellite[0].dlkDSL.mac "Repetition Generation Delay for Node 73 at Satellite" ETV
vector 53 Florasat_Individual_Sats.satellite[0].dlkDSL.mac "Message Generation Delay for Node 73 at Satellite" ETV
vector 54 Florasat_Individual_Sats.satellite[0].dlkDSL.mac "Repetition Position for Node 418 at Satellite" ETV
vector 55 Florasat_Individual_Sats.satellite[0].dlkDSL.mac "Repetition Generation Delay for Node 418 at Satellite" ETV
vector 56 Florasat_Individual_Sats.satellite[0].dlkDSL.mac "Message Generation Delay for Node 418 at Satellite" ETV
vector 57 Florasat_Individual_Sats.satellite[0].dlkDSL.mac "Repetition Position for Node 433 at Satellite" ETV
vector 58 Florasat_Individual_Sats.satellite[0].dlkDSL.mac "Repetition Generation Delay for Node 433 at Satellite" ETV
vector 59 Florasat_Individual_Sats.satellite[0].dlkDSL.mac "Message Generation Delay for Node 433 at Satellite" ETV
vector 60 Florasat_Individual_Sats.satellite[0].dlkDSL.mac "Repetition Position for Node 238 at Satellite" ETV
vector 61 Florasat_Individual_Sats.satellite[0].dlkDSL.mac "Repetition Generation Delay for Node 238 at Satellite" ETV
vector 62 Florasat_Individual_Sats.satellite[0].dlkDSL.mac "Message Generation Delay for Node 238 at Satellite" ETV
vector 63 Florasat_Individual_Sats.satellite[0].dlkDSL.mac "Repetition Position for Node 133 at Satellite" ETV
vector 64 Florasat_Individual_Sats.satellite[0].dlkDSL.mac "Repetition Generation Delay for Node 133 at Satellite" ETV
vector 65 Florasat_Individual_Sats.satellite[0].dlkDSL.mac "Message Generation Delay for Node 133 at Satellite" ETV
vector 66 Florasat_Individual_Sats.satellite[0].dlkDSL.mac "Repetition Position for Node 298 at Satellite" ETV
vector 67 Florasat_Individual_Sats.satellite[0].dlkDSL.mac "Repetition Generation Delay for Node 298 at Satellite" ETV
vector 68 Florasat_Individual_Sats.satellite[0].dlkDSL.mac "Message Generation Delay for Node 298 at Satellite" ETV
vector 69 Florasat_Individual_Sats.satellite[0].dlkDSL.mac "Repetition Position for Node 373 at Satellite" ETV
vector 70 Florasat_Individual_Sats.satellite[0].dlkDSL.mac "Repetition Generation Delay for Node 373 at Satellite" ETV
vector 71 Florasat_Individual_Sats.satellite[0].dlkDSL.mac "Message Generation Delay for Node 373 at Satellite" ETV
vector 72 Florasat_Individual_Sats.satellite[0].dlkDSL.mac "Repetition Position for Node 118 at Satellite" ETV
vector 73 Florasat_Individual_Sats.satellite[0].dlkDSL.mac "Repetition Generation Delay for Node 118 at Satellite" ETV
vector 74 Florasat_Individual_Sats.satellite[0].dlkDSL.mac "Message Generation Delay for Node 118 at Satellite" ETV
vector 75 Florasat_Individual_Sats.satellite[0].dlkDSL.mac "Repetition Position for Node 283 at Satellite" ETV
vector 76 Florasat_Individual_Sats.satellite[0].dlkDSL.mac "Repetition Generation Delay for Node 283 at Satellite" ETV
vector 77 Florasat_Individual_Sats.satellite[0].dlkDSL.mac "Message Generation Delay for Node 283 at Satellite" ETV
vector 78 Florasat_Individual_Sats.satellite[0].dlkDSL.mac "Repetition Position for Node 493 at Satellite" ETV
vector 79 Florasat_Individual_Sats.satellite[0].dlkDSL.mac "Repetition Generation Delay for Node 493 at Satellite" ETV
vector 80 Florasat_Individual_Sats.satellite[0].dlkDSL.mac "Message Generation Delay for Node 493 at Satellite" ETV
vector 81 Florasat_Individual_Sats.satellite[0].dlkDSL.mac "Repetition Position for Node 163 at Satellite" ETV
vector 82 Florasat_Individual_Sats.satellite[0].dlkDSL.mac "Repetition Generation Delay for Node 163 at Satellite" ETV
vector 83 Florasat_Individual_Sats.satellite[0].dlkDSL.mac "Message Generation Delay for Node 163 at Satellite" ETV
vector 84 Florasat_Individual_Sats.satellite[0].dlkDSL.mac "Repetition Position for Node 178 at Satellite" ETV
vector 85 Florasat_Individual_Sats.satellite[0].dlkDSL.mac "Repetition Generation Delay for Node 178 at Satellite" ETV
vector 86 Florasat_Individual_Sats.satellite[0].dlkDSL.mac "Message Generation Delay for Node 178 at Satellite" ETV
vector 87 Florasat_Individual_Sats.satellite[0].dlkDSL.mac "Repetition Position for Node 148 at Satellite" ETV
vector 88 Florasat_Individual_Sats.satellite[0].dlkDSL.mac "Repetition Generation Delay for Node 148 at Satellite" ETV
vector 89 Florasat_Individual_Sats.satellite[0].dlkDSL.mac "Message Generation Delay for Node 148 at Satellite" ETV
vector 90 Florasat_Individual_Sats.satellite[0].dlkDSL.mac "Repetition Position for Node 478 at Satellite" ETV
vector 91 Florasat_Individual_Sats.satellite[0].dlkDSL.mac "Repetition Generation Delay for Node 478 at Satellite" ETV
vector 92 Florasat_Individual_Sats.satellite[0].dlkDSL.mac "Message Generation Delay for Node 478 at Satellite" ETV
0	19667 6810 143 6404 7.86909151816 748.54537937073 255 180 180 45900 8262000
1	26477 341 143 3316 7.86909151816 268.81718376762 13 180 180 2340 421200
2	26818 9816 143 6404 7.86909151816 748.54537937073 255 6.86909151816 747.54537937073 83131.70821442 36376567.195577
3	36634 490 143 3316 7.86909151816 268.81718376762 13 6.86909151816 267.81718376762 1926.0870642875 369238.23198145
4	37124 1088 143 4573 7.86909151816 462.86470275467 29 6.86909151816 461.86470275467 4403.8791569139 1067001.6377148
5	38212 34 143 143 7.86909151816 7.86909151816 1 6.86909151816 6.86909151816 6.86909151816 47.184418284858
6	38246 6702 144 6405 7.86909151816 748.54537937073 255 1 255 32640 5559680
7	44948 6702 144 6405 7.86909151816 748.54537937073 255 1 255 32640 5559680
8	51650 6702 144 6405 7.86909151816 748.54537937073 255 1 255 32640 5559680
9	58352 241 343 6367 31.60427572614 740.43941789365 9 180 180 1620 291600
10	58593 357 343 6367 31.60427572614 740.43941789365 9 30.60427572614 739.43941789365 3802.5884423169 2209468.3491898
11	58950 37 343 343 31.60427572614 31.60427572614 1 30.60427572614 30.60427572614 30.60427572614 936.6216927216
12	58987 274 348 4415 32.10012418082 444.55608576982 10 180 180 1800 324000
13	59261 391 348 4415 32.10012418082 444.55608576982 10 31.10012418082 443.55608576982 1912.6807715806 559070.80974291
14	59652 37 348 348 32.10012418082 32.10012418082 1 31.10012418082 31.10012418082 31.10012418082 967.21772406242
15	59689 302 357 5871 33.14555962165 668.60032955594 11 180 180 1980 356400
16	59991 430 357 5871 33.14555962165 668.60032955594 11 32.14555962165 667.60032955594 3414.9068244854 1519980.910298
17	60421 37 357 357 33.14555962165 33.14555962165 1 32.14555962165 32.14555962165 32.14555962165 1033.3370033891
18	60458 301 403 3492 37.58836602037 291.92329770362 11 180 180 1980 356400
19	60759 429 403 3492 37.58836602037 291.92329770362 11 36.58836602037 290.92329770362 1570.2693143573 288185.51773236
20	61188 37 403 403 37.58836602037 37.58836602037 1 36.58836602037 36.58836602037 36.58836602037 1338.7085280406
21	61225 330 470 5812 44.1793557635 658.02337684146 12 180 180 2160 388800
22	61555 470 470 5812 44.1793557635 658.02337684146 12 43.1793557635 657.02337684146 3485.2331586576 1462069.7930377
23	62025 35 470 470 44.1793557635 44.1793557635 1 43.1793557635 43.1793557635 43.1793557635 1864.4567641509
24	62060 191 481 5216 45.35184878217 565.55061884517 7 180 180 1260 226800
25	62251 272 481 5216 45.35184878217 565.55061884517 7 44.35184878217 564.55061884517 1573.9392731026 535391.49560642
26	62523 37 481 481 45.35184878217 45.35184878217 1 44.35184878217 44.35184878217 44.35184878217 1967.0864903965
27	62560 357 753 4638 62.96654461397 481.18221973513 13 180 180 2340 421200
28	62917 508 753 4638 62.96654461397 481.18221973513 13 61.96654461397 480.18221973513 2521.9471782389 675677.37713133
29	63425 37 753 753 62.96654461397 62.96654461397 1 61.96654461397 61.96654461397 61.96654461397 3839.8526513951
30	63462 165 775 6404 65.78764709624 748.54537937073 6 180 180 1080 194400
31	63627 235 775 6404 65.78764709624 748.54537937073 6 64.78764709624 747.54537937073 2600.9889566977 1484931.2651447
32	63862 37 775 775 65.78764709624 65.78764709624 1 64.78764709624 64.78764709624 64.78764709624 4197.4392162669
33	63899 247 941 4018 80.32285953749 368.65678174648 9 180 180 1620 291600
34	64146 351 941 4018 80.32285953749 368.65678174648 9 79.32285953749 367.65678174648 2218.4530465243 613712.1919325
35	64497 37 941 941 80.32285953749 80.32285953749 1 79.32285953749 79.32285953749 79.32285953749 6292.1160452044
36	64534 277 991 4918 87.77704015005 520.02224148932 10 180 180 1800 324000
37	64811 395 991 4918 87.77704015005 520.02224148932 10 86.77704015005 519.02224148932 3280.4770474245 1268107.7270218
38	65206 37 991 991 87.77704015005 87.77704015005 1 86.77704015005 86.77704015005 86.77704015005 7530.2546972034
39	65243 305 1052 3369 92.95290196541 273.24774609872 11 180 180 1980 356400
40	65548 434 1052 3369 92.95290196541 273.24774609872 11 91.95290196541 272.24774609872 2035.0190465632 413610.12053177
41	65982 38 1052 1052 92.95290196541 92.95290196541 1 91.95290196541 91.95290196541 91.95290196541 8455.3361798603
42	66020 361 1113 5274 99.4583067076 579.54768959427 13 180 180 2340 421200
43	66381 514 1113 5274 99.4583067076 579.54768959427 13 98.4583067076 578.54768959427 3948.0578775154 1554576.379115
44	66895 36 1113 1113 99.4583067076 99.4583067076 1 98.4583067076 98.4583067076 98.4583067076 9694.0381597278
45	66931 335 1225 5425 101.08339313049 602.83975347624 12 180 180 2160 388800
46	67266 478 1225 5425 101.08339313049 602.83975347624 12 100.08339313049 601.83975347624 3829.8309527927 1526822.4633032
47	67744 40 1225 1225 101.08339313049 101.08339313049 1 100.08339313049 100.08339313049 100.08339313049 10016.685580512
48	67784 195 1311 5026 109.05167436337 541.20442907436 7 180 180 1260 226800
49	67979 278 1311 5026 109.05167436337 541.20442907436 7 108.05167436337 540.20442907436 1989.5717327718 707191.63478109
50	68257 40 1311 1311 109.05167436337 109.05167436337 1 108.05167436337 108.05167436337 108.05167436337 11675.164332728
51	68297 279 1463 5056 125.27123397908 547.54194032977 10 180 180 1800 324000
52	68576 398 1463 5056 125.27123397908 547.54194032977 10 124.27123397908 546.54194032977 3023.4090820181 1124552.080573
53	68974 40 1463 1463 125.27123397908 125.27123397908 1 124.27123397908 124.27123397908 124.27123397908 15443.339594683
54	69014 223 1481 5820 128.11818388116 658.8263561047 8 180 180 1440 259200
55	69237 318 1481 5820 128.11818388116 658.8263561047 8 127.11818388116 657.8263561047 2870.3889857517 1231927.0084138
56	69555 40 1481 1481 128.11818388116 128.11818388116 1 127.11818388116 127.11818388116 127.11818388116 16159.032673244
57	69595 196 2126 4706 178.43845896715 497.91823027948 7 180 180 1260 226800
58	69791 280 2126 4706 178.43845896715 497.91823027948 7 177.43845896715 496.91823027948 2027.787438346 658015.62290664
59	70071 40 2126 2126 178.43845896715 178.43845896715 1 177.43845896715 177.43845896715 177.43845896715 31484.406720637
60	70111 140 2270 5852 191.70245436119 662.90583641015 5 180 180 900 162000
61	70251 200 2270 5852 191.70245436119 662.90583641015 5 190.70245436119 661.90583641015 1712.0614251939 727398.81220116
62	70451 40 2270 2270 191.70245436119 191.70245436119 1 190.70245436119 190.70245436119 190.70245436119 36367.426099382
63	70491 196 2527 5622 206.14688366297 641.61305733368 7 180 180 1260 226800
64	70687 280 2527 5622 206.14688366297 641.61305733368 7 205.14688366297 640.61305733368 3000.1732490482 1459639.0948057
65	70967 40 2527 2527 206.14688366297 206.14688366297 1 205.14688366297 205.14688366297 205.14688366297 42085.243876628
66	71007 223 2538 6178 206.84180910447 711.33049509701 8 180 180 1440 259200
67	71230 318 2538 6178 206.84180910447 711.33049509701 8 205.84180910447 710.33049509701 3811.4248483152 2025524.5707818
68	71548 40 2538 2538 206.84180910447 206.84180910447 1 205.84180910447 205.84180910447 205.84180910447 42370.850375401
69	71588 112 2566 5002 209.23707043849 537.11845120397 4 180 180 720 129600
70	71700 160 2566 5002 209.23707043849 537.11845120397 4 208.23707043849 536.11845120397 1305.1596076607 488331.90306417
71	71860 40 2566 2566 209.23707043849 209.23707043849 1 208.23707043849 208.23707043849 208.23707043849 43362.677504805
72	71900 279 2712 6163 224.15975954095 707.60777029269 10 180 180 1800 324000
73	72179 398 2712 6163 224.15975954095 707.60777029269 10 223.15975954095 706.60777029269 4810.8839279812 2657105.3957607
74	72577 40 2712 2712 224.15975954095 224.15975954095 1 223.15975954095 223.15975954095 223.15975954095 49800.278278375
75	72617 139 2818 3828 232.64450611256 350.55120004865 5 180 180 900 162000
76	72756 198 2818 3828 232.64450611256 350.55120004865 5 231.64450611256 349.55120004865 1387.6440813387 393338.17174111
77	72954 40 2818 2818 232.64450611256 232.64450611256 1 231.64450611256 231.64450611256 231.64450611256 53659.177212132
78	72994 139 3441 5798 284.42981548085 657.13938088449 5 180 180 900 162000
79	73133 198 3441 5798 284.42981548085 657.13938088449 5 283.42981548085 656.13938088449 2277.5207952323 1157567.6812495
80	73331 40 3441 3441 284.42981548085 284.42981548085 1 283.42981548085 283.42981548085 283.42981548085 80332.460303509
81	73371 224 3632 5889 301.78834821193 670.84626653212 8 180 180 1440 259200
82	73595 320 3632 5889 301.78834821193 670.84626653212 8 300.78834821193 669.84626653212 3856.7989613826 2028069.1954108
83	73915 40 3632 3632 301.78834821193 301.78834821193 1 300.78834821193 300.78834821193 300.78834821193 90473.630420061
84	73955 307 3778 5599 339.36913251006 637.51955097601 11 180 180 1980 356400
85	74262 438 3778 5599 339.36913251006 637.51955097601 11 338.36913251006 636.51955097601 5431.8230188713 2779913.2773088
86	74700 40 3778 3778 339.36913251006 339.36913251006 1 338.36913251006 338.36913251006 338.36913251006 114493.66983561
87	74740 140 4249 6353 410.62780873095 738.51444921865 5 180 180 900 162000
88	74880 200 4249 6353 410.62780873095 738.51444921865 5 409.62780873095 737.51444921865 3114.7172750842 2007470.0744687
89	75080 40 4249 4249 410.62780873095 410.62780873095 1 409.62780873095 409.62780873095 409.62780873095 167794.94168572
90	75120 224 4573 5825 462.86470275467 659.13714002566 8 180 180 1440 259200
91	75344 320 4573 5825 462.86470275467 659.13714002566 8 461.86470275467 658.13714002566 4391.8648308795 2449680.040341
92	75664 40 4573 4573 462.86470275467 462.86470275467 1 461.86470275467 461.86470275467 461.86470275467 213319.00365066

