version 3
run General-0-20260605-22:37:52-1048198
attr configname General
attr datetime 20260605-22:37:52
attr datetimef 20260605-223752
attr experiment General
attr inifile Test_MLModel_1.ini
attr iterationvars $0=23542
attr iterationvarsd 23542
attr iterationvarsf 23542-
attr measurement $0=23542
attr network Florasat.Test_Individual.Florasat_Individual_Sats
attr processid 1048198
attr repetition 0
attr replication #0
attr resultdir results
attr runnumber 0
attr seedset 0
config *.satellite[0].NoradModule.raan 185
config *.stats_altitude 670
config *.stats_raan 185
config image-path ../../images:../../../../samples/inet4.5_2/images
config network Florasat.Test_Individual.Florasat_Individual_Sats
config rng-class cMersenneTwister
config *.**.result-recording-modes -
config **.result-recording-modes -
config **.statistic-recording true
config **.scalar-recording true
config **.vector-recording true
config **.vector-record-eventnumbers true
config repeat 10
config seed-0-mt 23542
config sim-time-limit 749s
config simtime-resolution -11
config **.stats_altitude 670
config **.stats_raan 185
config *.radioMedium.backgroundNoise.power -110dBm
config *.radioMedium.mediumLimitCache.centerFrequency 868MHz
config *.radioMedium.mediumLimitCache.maxTransmissionDuration 4s
config *.radioMedium.mediumLimitCache.minInterferenceTime 0s
config **.numSatellites 1
config *.satellite[*].mobilityType "\"Sat_Mob_SatelliteMobility_Standalone\""
config *.satellite[*].noradModuleType "\"Sat_Mob_NoradA\""
config **.satellite[*].**.initFromDisplayString false
config *.satellite[*].mobility.faceForward true
config *.satellite[*].mobility.updateInterval 20s
config *.satellite[*].NoradModule.satName "\"FLoRaSat\""
config *.satellite[*].NoradModule.satIndex -1
config *.satellite[*].NoradModule.baseYear 20
config *.satellite[*].NoradModule.baseDay 1.5
config *.satellite[*].NoradModule.planes 1
config *.satellite[*].NoradModule.satPerPlane 1
config *.satellite[*].NoradModule.eccentricity 0.000001
config *.satellite[*].NoradModule.inclination 98
config *.satellite[*].NoradModule.altitude 670
config *.satellite[0].NoradModule.raan 185
config *.satellite[0].NoradModule.meanAnomaly 195
config *.satellite[*].phyDSL.radio.receiver.enableCollisionOverlap true
config *.satellite[*].phyDSL.radio.receiver.minCollisionOverlap 0s
config *.satellite[*].phyDSL.radio.antenna.typename ConstantGainAntenna
config *.satellite[*].phyDSL.radio.antenna.mobilityModule "\"^.^.^.mobility\""
config *.satellite[*].phyISL.radio.antenna.mobilityModule "\"^.^.^.mobility\""
config *.satellite[*].phyGSL.radio.antenna.mobilityModule "\"^.^.^.mobility\""
config *.satellite[*].phyDSL.radio.antenna.gain 12dB
config *.satellite[*].net.routingType "\"Null_Routing\""
config *.terminal[*].net.routingType "\"Ter_Null_Routing\""
config *.**.numGroundLinks 40
config *.satellite[*].**.interfaceTableModule "\"\""
config **.radioMedium.typename LoRaMedium
config **.radioMedium.analogModel.typename LoRaAnalogModel
config **.intraPlaneIslDisabled false
config **.interPlaneIslDisabled false
config **.numTerminals 30
config *.terminal[*].phy.radio.antenna.mobilityModule "\"^.^.^.mob\""
config *.terminal[*].dlk.mac.interfaceTableModule "\"\""
config *.terminal[*].dlk.energySourceModule "\"\""
config *.terminal[*].dlk.mac.LoRaTP "intuniform(12, 14)"
config *.terminal[*].dlk.mac.LoRaSF "intuniform(10, 12)"
config *.terminal[*].dlk.mac.useMLBox true
config *.terminal[*].dlk.mac.mlBox.modelPath "\"/home/ylnner/Documents/omnet++/omnetpp-6.3.0/projects/florasat_v4_ult_routing/simulations/Test_Individual/mlmodels/bilstm_scripted.pt\""
config **.numberOfPacketsToSend 0
config **.timeToFirstPacket 1s
config **.timeToNextPacket 50s
config *.terminal[0].mob.radius 0.0
config *.terminal[0].mob.centerLatitude 54.978
config *.terminal[0].mob.centerLongitude -1.617
config *.terminal[1].mob.radius 0.0
config *.terminal[1].mob.centerLatitude 52.630
config *.terminal[1].mob.centerLongitude -1.139
config *.terminal[2].mob.radius 0.0
config *.terminal[2].mob.centerLatitude 52.612
config *.terminal[2].mob.centerLongitude -6.295
config *.terminal[3].mob.radius 0.0
config *.terminal[3].mob.centerLatitude 47.243
config *.terminal[3].mob.centerLongitude 6.024
config *.terminal[4].mob.radius 0.0
config *.terminal[4].mob.centerLatitude 43.610
config *.terminal[4].mob.centerLongitude 3.876
config *.terminal[5].mob.radius 0.0
config *.terminal[5].mob.centerLatitude 49.443
config *.terminal[5].mob.centerLongitude 1.099
config *.terminal[6].mob.radius 0.0
config *.terminal[6].mob.centerLatitude 37.992
config *.terminal[6].mob.centerLongitude -1.130
config *.terminal[7].mob.radius 0.0
config *.terminal[7].mob.centerLatitude 40.965
config *.terminal[7].mob.centerLongitude -5.664
config *.terminal[8].mob.radius 0.0
config *.terminal[8].mob.centerLatitude 40.657
config *.terminal[8].mob.centerLongitude -7.914
config *.terminal[9].mob.radius 0.0
config *.terminal[9].mob.centerLatitude 51.340
config *.terminal[9].mob.centerLongitude 12.373
config *.terminal[10].mob.radius 0.0
config *.terminal[10].mob.centerLatitude 51.455
config *.terminal[10].mob.centerLongitude 7.011
config *.terminal[11].mob.radius 0.0
config *.terminal[11].mob.centerLatitude 49.452
config *.terminal[11].mob.centerLongitude 11.076
config *.terminal[12].mob.radius 0.0
config *.terminal[12].mob.centerLatitude 43.769
config *.terminal[12].mob.centerLongitude 11.255
config *.terminal[13].mob.radius 0.0
config *.terminal[13].mob.centerLatitude 41.117
config *.terminal[13].mob.centerLongitude 16.871
config *.terminal[14].mob.radius 0.0
config *.terminal[14].mob.centerLatitude 52.132
config *.terminal[14].mob.centerLongitude 5.291
config *.terminal[15].mob.radius 0.0
config *.terminal[15].mob.centerLatitude 50.411
config *.terminal[15].mob.centerLongitude 4.444
config *.terminal[16].mob.radius 0.0
config *.terminal[16].mob.centerLatitude 47.559
config *.terminal[16].mob.centerLongitude 7.588
config *.terminal[17].mob.radius 0.0
config *.terminal[17].mob.centerLatitude 55.403
config *.terminal[17].mob.centerLongitude 10.402
config *.terminal[18].mob.radius 0.0
config *.terminal[18].mob.centerLatitude 59.858
config *.terminal[18].mob.centerLongitude 17.638
config *.terminal[19].mob.radius 0.0
config *.terminal[19].mob.centerLatitude 60.451
config *.terminal[19].mob.centerLongitude 22.266
config *.terminal[20].mob.radius 0.0
config *.terminal[20].mob.centerLatitude 56.325
config *.terminal[20].mob.centerLongitude 22.349
config *.terminal[21].mob.radius 0.0
config *.terminal[21].mob.centerLatitude 49.883
config *.terminal[21].mob.centerLongitude 18.568
config *.terminal[22].mob.radius 0.0
config *.terminal[22].mob.centerLatitude 47.531
config *.terminal[22].mob.centerLongitude 21.627
config *.terminal[23].mob.radius 0.0
config *.terminal[23].mob.centerLatitude 44.179
config *.terminal[23].mob.centerLongitude 28.649
config *.terminal[24].mob.radius 0.0
config *.terminal[24].mob.centerLatitude 45.327
config *.terminal[24].mob.centerLongitude 14.442
config *.terminal[25].mob.radius 0.0
config *.terminal[25].mob.centerLatitude 40.694
config *.terminal[25].mob.centerLongitude 30.400
config *.terminal[26].mob.radius 0.0
config *.terminal[26].mob.centerLatitude 37.066
config *.terminal[26].mob.centerLongitude 37.383
config *.terminal[27].mob.radius 0.0
config *.terminal[27].mob.centerLatitude 64.836
config *.terminal[27].mob.centerLongitude -23.708
config *.terminal[28].mob.radius 0.0
config *.terminal[28].mob.centerLatitude 28.099
config *.terminal[28].mob.centerLongitude -17.113
config *.terminal[29].mob.radius 0.0
config *.terminal[29].mob.centerLatitude 34.921
config *.terminal[29].mob.centerLongitude 33.623
config **.numStations 3
config **.numStations 3
config *.station[0].mobility.latitude 55.752
config *.station[0].mobility.longitude 37.616
config *.station[0].cityName "\"Moscow\""
config *.station[0].groundStationId 7
config *.station[0].routerAddr "\"10.0.0.29\""
config *.station[0].serving "\"10.0.0.29\""
config *.station[1].mobility.latitude 28.652
config *.station[1].mobility.longitude 77.231
config *.station[1].cityName "\"Delhi\""
config *.station[1].groundStationId 11
config *.station[1].routerAddr "\"10.0.0.45\""
config *.station[1].serving "\"10.0.0.45\""
config *.station[2].mobility.latitude 25.35
config *.station[2].mobility.longitude 51.24
config *.station[2].cityName "\"Katar\""
config *.station[2].groundStationId 19
config *.station[2].routerAddr "\"10.0.0.77\""
config *.station[2].serving "\"10.0.0.77\""
config *.visualizer.canvasVisualizer.mediumVisualizer.typename ""
config *.visualizer.*.radioVisualizer.displayAntennaLobes true
config *.visualizer.*.dataLinkVisualizer.displayLinks true
config *.visualizer.*.mobilityVisualizer.displayMovementTrails true
config *.visualizer.*.mobilityVisualizer.movementTrailLineWidth 1
config *.visualizer.*.mobilityVisualizer.trailLength 3000
config **.ttxStart_max 30s
config **.ttxIdle_min 10s
config **.ttxIdle_max 25s
config **.Ntw 2
config **.Ntx 45
config **.ttwDuration 550s

vector 0 Florasat_Individual_Sats.satellite[0].dlkDSL.mac "Satellite Position when Repetition Received" ETV
vector 1 Florasat_Individual_Sats.satellite[0].dlkDSL.mac "Repetition Position for Node 358 at Satellite" ETV
vector 2 Florasat_Individual_Sats.satellite[0].dlkDSL.mac "All Nodes Repetition Generation Delay at Satellite" ETV
vector 3 Florasat_Individual_Sats.satellite[0].dlkDSL.mac "Repetition Generation Delay for Node 358 at Satellite" ETV
vector 4 Florasat_Individual_Sats.satellite[0].dlkDSL.mac "All Nodes Message Generation Delay at Satellite" ETV
vector 5 Florasat_Individual_Sats.satellite[0].dlkDSL.mac "Message Generation Delay for Node 358 at Satellite" ETV
vector 6 Florasat_Individual_Sats.satellite[0].net.packetHandler "packets received" ETV
vector 7 Florasat_Individual_Sats.satellite[0].net.packetHandler "dropped unroutable" ETV
vector 8 Florasat_Individual_Sats.satellite[0].net.packetHandler "packets dropped" ETV
vector 9 Florasat_Individual_Sats.satellite[0].dlkDSL.mac "Repetition Position for Node 103 at Satellite" ETV
vector 10 Florasat_Individual_Sats.satellite[0].dlkDSL.mac "Repetition Generation Delay for Node 103 at Satellite" ETV
vector 11 Florasat_Individual_Sats.satellite[0].dlkDSL.mac "Message Generation Delay for Node 103 at Satellite" ETV
vector 12 Florasat_Individual_Sats.satellite[0].dlkDSL.mac "Repetition Position for Node 58 at Satellite" ETV
vector 13 Florasat_Individual_Sats.satellite[0].dlkDSL.mac "Repetition Generation Delay for Node 58 at Satellite" ETV
vector 14 Florasat_Individual_Sats.satellite[0].dlkDSL.mac "Message Generation Delay for Node 58 at Satellite" ETV
vector 15 Florasat_Individual_Sats.satellite[0].dlkDSL.mac "Repetition Position for Node 223 at Satellite" ETV
vector 16 Florasat_Individual_Sats.satellite[0].dlkDSL.mac "Repetition Generation Delay for Node 223 at Satellite" ETV
vector 17 Florasat_Individual_Sats.satellite[0].dlkDSL.mac "Message Generation Delay for Node 223 at Satellite" ETV
vector 18 Florasat_Individual_Sats.satellite[0].dlkDSL.mac "Repetition Position for Node 463 at Satellite" ETV
vector 19 Florasat_Individual_Sats.satellite[0].dlkDSL.mac "Repetition Generation Delay for Node 463 at Satellite" ETV
vector 20 Florasat_Individual_Sats.satellite[0].dlkDSL.mac "Message Generation Delay for Node 463 at Satellite" ETV
vector 21 Florasat_Individual_Sats.satellite[0].dlkDSL.mac "Repetition Position for Node 253 at Satellite" ETV
vector 22 Florasat_Individual_Sats.satellite[0].dlkDSL.mac "Repetition Generation Delay for Node 253 at Satellite" ETV
vector 23 Florasat_Individual_Sats.satellite[0].dlkDSL.mac "Message Generation Delay for Node 253 at Satellite" ETV
vector 24 Florasat_Individual_Sats.satellite[0].dlkDSL.mac "Repetition Position for Node 388 at Satellite" ETV
vector 25 Florasat_Individual_Sats.satellite[0].dlkDSL.mac "Repetition Generation Delay for Node 388 at Satellite" ETV
vector 26 Florasat_Individual_Sats.satellite[0].dlkDSL.mac "Message Generation Delay for Node 388 at Satellite" ETV
vector 27 Florasat_Individual_Sats.satellite[0].dlkDSL.mac "Repetition Position for Node 343 at Satellite" ETV
vector 28 Florasat_Individual_Sats.satellite[0].dlkDSL.mac "Repetition Generation Delay for Node 343 at Satellite" ETV
vector 29 Florasat_Individual_Sats.satellite[0].dlkDSL.mac "Message Generation Delay for Node 343 at Satellite" ETV
vector 30 Florasat_Individual_Sats.satellite[0].dlkDSL.mac "Repetition Position for Node 403 at Satellite" ETV
vector 31 Florasat_Individual_Sats.satellite[0].dlkDSL.mac "Repetition Generation Delay for Node 403 at Satellite" ETV
vector 32 Florasat_Individual_Sats.satellite[0].dlkDSL.mac "Message Generation Delay for Node 403 at Satellite" ETV
vector 33 Florasat_Individual_Sats.satellite[0].dlkDSL.mac "Repetition Position for Node 193 at Satellite" ETV
vector 34 Florasat_Individual_Sats.satellite[0].dlkDSL.mac "Repetition Generation Delay for Node 193 at Satellite" ETV
vector 35 Florasat_Individual_Sats.satellite[0].dlkDSL.mac "Message Generation Delay for Node 193 at Satellite" ETV
vector 36 Florasat_Individual_Sats.satellite[0].dlkDSL.mac "Repetition Position for Node 268 at Satellite" ETV
vector 37 Florasat_Individual_Sats.satellite[0].dlkDSL.mac "Repetition Generation Delay for Node 268 at Satellite" ETV
vector 38 Florasat_Individual_Sats.satellite[0].dlkDSL.mac "Message Generation Delay for Node 268 at Satellite" ETV
vector 39 Florasat_Individual_Sats.satellite[0].dlkDSL.mac "Repetition Position for Node 328 at Satellite" ETV
vector 40 Florasat_Individual_Sats.satellite[0].dlkDSL.mac "Repetition Generation Delay for Node 328 at Satellite" ETV
vector 41 Florasat_Individual_Sats.satellite[0].dlkDSL.mac "Message Generation Delay for Node 328 at Satellite" ETV
vector 42 Florasat_Individual_Sats.satellite[0].dlkDSL.mac "Repetition Position for Node 88 at Satellite" ETV
vector 43 Florasat_Individual_Sats.satellite[0].dlkDSL.mac "Repetition Generation Delay for Node 88 at Satellite" ETV
vector 44 Florasat_Individual_Sats.satellite[0].dlkDSL.mac "Message Generation Delay for Node 88 at Satellite" ETV
vector 45 Florasat_Individual_Sats.satellite[0].dlkDSL.mac "Repetition Position for Node 313 at Satellite" ETV
vector 46 Florasat_Individual_Sats.satellite[0].dlkDSL.mac "Repetition Generation Delay for Node 313 at Satellite" ETV
vector 47 Florasat_Individual_Sats.satellite[0].dlkDSL.mac "Message Generation Delay for Node 313 at Satellite" ETV
vector 48 Florasat_Individual_Sats.satellite[0].dlkDSL.mac "Repetition Position for Node 208 at Satellite" ETV
vector 49 Florasat_Individual_Sats.satellite[0].dlkDSL.mac "Repetition Generation Delay for Node 208 at Satellite" ETV
vector 50 Florasat_Individual_Sats.satellite[0].dlkDSL.mac "Message Generation Delay for Node 208 at Satellite" ETV
vector 51 Florasat_Individual_Sats.satellite[0].dlkDSL.mac "Repetition Position for Node 73 at Satellite" ETV
vector 52 Florasat_Individual_Sats.satellite[0].dlkDSL.mac "Repetition Generation Delay for Node 73 at Satellite" ETV
vector 53 Florasat_Individual_Sats.satellite[0].dlkDSL.mac "Message Generation Delay for Node 73 at Satellite" ETV
vector 54 Florasat_Individual_Sats.satellite[0].dlkDSL.mac "Repetition Position for Node 418 at Satellite" ETV
vector 55 Florasat_Individual_Sats.satellite[0].dlkDSL.mac "Repetition Generation Delay for Node 418 at Satellite" ETV
vector 56 Florasat_Individual_Sats.satellite[0].dlkDSL.mac "Message Generation Delay for Node 418 at Satellite" ETV
vector 57 Florasat_Individual_Sats.satellite[0].dlkDSL.mac "Repetition Position for Node 433 at Satellite" ETV
vector 58 Florasat_Individual_Sats.satellite[0].dlkDSL.mac "Repetition Generation Delay for Node 433 at Satellite" ETV
vector 59 Florasat_Individual_Sats.satellite[0].dlkDSL.mac "Message Generation Delay for Node 433 at Satellite" ETV
vector 60 Florasat_Individual_Sats.satellite[0].dlkDSL.mac "Repetition Position for Node 238 at Satellite" ETV
vector 61 Florasat_Individual_Sats.satellite[0].dlkDSL.mac "Repetition Generation Delay for Node 238 at Satellite" ETV
vector 62 Florasat_Individual_Sats.satellite[0].dlkDSL.mac "Message Generation Delay for Node 238 at Satellite" ETV
vector 63 Florasat_Individual_Sats.satellite[0].dlkDSL.mac "Repetition Position for Node 133 at Satellite" ETV
vector 64 Florasat_Individual_Sats.satellite[0].dlkDSL.mac "Repetition Generation Delay for Node 133 at Satellite" ETV
vector 65 Florasat_Individual_Sats.satellite[0].dlkDSL.mac "Message Generation Delay for Node 133 at Satellite" ETV
vector 66 Florasat_Individual_Sats.satellite[0].dlkDSL.mac "Repetition Position for Node 298 at Satellite" ETV
vector 67 Florasat_Individual_Sats.satellite[0].dlkDSL.mac "Repetition Generation Delay for Node 298 at Satellite" ETV
vector 68 Florasat_Individual_Sats.satellite[0].dlkDSL.mac "Message Generation Delay for Node 298 at Satellite" ETV
vector 69 Florasat_Individual_Sats.satellite[0].dlkDSL.mac "Repetition Position for Node 373 at Satellite" ETV
vector 70 Florasat_Individual_Sats.satellite[0].dlkDSL.mac "Repetition Generation Delay for Node 373 at Satellite" ETV
vector 71 Florasat_Individual_Sats.satellite[0].dlkDSL.mac "Message Generation Delay for Node 373 at Satellite" ETV
vector 72 Florasat_Individual_Sats.satellite[0].dlkDSL.mac "Repetition Position for Node 118 at Satellite" ETV
vector 73 Florasat_Individual_Sats.satellite[0].dlkDSL.mac "Repetition Generation Delay for Node 118 at Satellite" ETV
vector 74 Florasat_Individual_Sats.satellite[0].dlkDSL.mac "Message Generation Delay for Node 118 at Satellite" ETV
vector 75 Florasat_Individual_Sats.satellite[0].dlkDSL.mac "Repetition Position for Node 283 at Satellite" ETV
vector 76 Florasat_Individual_Sats.satellite[0].dlkDSL.mac "Repetition Generation Delay for Node 283 at Satellite" ETV
vector 77 Florasat_Individual_Sats.satellite[0].dlkDSL.mac "Message Generation Delay for Node 283 at Satellite" ETV
vector 78 Florasat_Individual_Sats.satellite[0].dlkDSL.mac "Repetition Position for Node 493 at Satellite" ETV
vector 79 Florasat_Individual_Sats.satellite[0].dlkDSL.mac "Repetition Generation Delay for Node 493 at Satellite" ETV
vector 80 Florasat_Individual_Sats.satellite[0].dlkDSL.mac "Message Generation Delay for Node 493 at Satellite" ETV
vector 81 Florasat_Individual_Sats.satellite[0].dlkDSL.mac "Repetition Position for Node 163 at Satellite" ETV
vector 82 Florasat_Individual_Sats.satellite[0].dlkDSL.mac "Repetition Generation Delay for Node 163 at Satellite" ETV
vector 83 Florasat_Individual_Sats.satellite[0].dlkDSL.mac "Message Generation Delay for Node 163 at Satellite" ETV
vector 84 Florasat_Individual_Sats.satellite[0].dlkDSL.mac "Repetition Position for Node 178 at Satellite" ETV
vector 85 Florasat_Individual_Sats.satellite[0].dlkDSL.mac "Repetition Generation Delay for Node 178 at Satellite" ETV
vector 86 Florasat_Individual_Sats.satellite[0].dlkDSL.mac "Message Generation Delay for Node 178 at Satellite" ETV
vector 87 Florasat_Individual_Sats.satellite[0].dlkDSL.mac "Repetition Position for Node 148 at Satellite" ETV
vector 88 Florasat_Individual_Sats.satellite[0].dlkDSL.mac "Repetition Generation Delay for Node 148 at Satellite" ETV
vector 89 Florasat_Individual_Sats.satellite[0].dlkDSL.mac "Message Generation Delay for Node 148 at Satellite" ETV
vector 90 Florasat_Individual_Sats.satellite[0].dlkDSL.mac "Repetition Position for Node 478 at Satellite" ETV
vector 91 Florasat_Individual_Sats.satellite[0].dlkDSL.mac "Repetition Generation Delay for Node 478 at Satellite" ETV
vector 92 Florasat_Individual_Sats.satellite[0].dlkDSL.mac "Message Generation Delay for Node 478 at Satellite" ETV
0	143	7.86909151816	180
0	339	30.86078581045	180
0	343	31.60427572614	180
0	348	32.10012418082	180
0	357	33.14555962165	180
0	403	37.58836602037	180
0	466	43.89270803872	180
0	470	44.1793557635	180
0	481	45.35184878217	180
0	542	50.74345935363	180
0	652	53.10583213288	180
0	691	56.71219950834	180
0	753	62.96654461397	180
0	775	65.78764709624	180
0	788	68.23366369451	180
0	792	68.30918962428	180
0	928	79.45794667177	180
0	932	79.7668796182	180
0	941	80.32285953749	180
0	976	86.72896701903	180
0	991	87.77704015005	180
0	1052	92.95290196541	180
0	1088	96.44189481487	180
0	1113	99.4583067076	180
0	1225	101.08339313049	180
0	1235	102.76335978525	180
0	1250	103.70309038497	180
0	1311	109.05167436337	180
0	1341	113.78554189442	180
0	1348	114.42384719377	180
0	1365	115.94685734941	180
0	1369	116.2958527863	180
0	1413	120.47799507217	180
0	1421	120.96507793156	180
0	1443	123.76231503783	180
0	1447	124.27454721279	180
0	1463	125.27123397908	180
0	1481	128.11818388116	180
0	1521	131.10271793887	180
0	1557	132.54545718658	180
0	1569	134.00694810496	180
0	1600	136.87254743282	180
0	1630	141.15215018967	180
0	1678	144.69362612458	180
0	1695	146.09184690345	180
0	1730	148.0173822643	180
0	1742	148.5322867566	180
0	1747	149.1723372599	180
0	1862	153.09437973069	180
0	1867	153.1885911705	180
0	1885	156.18796638426	180
0	1895	157.53058978416	180
0	1906	158.85317901674	180
0	1951	162.0540446799	180
0	1975	164.48127394768	180
0	1996	166.17022310131	180
0	2003	166.6331904311	180
0	2024	168.06359458191	180
0	2036	169.04082332719	180
0	2047	170.24284497661	180
0	2110	177.035238248	180
0	2116	177.58360260574	180
0	2126	178.43845896715	180
0	2133	179.39322240644	180
0	2153	181.44819244919	180
0	2164	181.98148878504	180
0	2172	183.02000034477	180
0	2215	185.31384595663	180
0	2234	187.08220448093	180
0	2261	190.37695135165	180
0	2270	191.70245436119	180
0	2277	191.84394604935	180
0	2286	193.04899909644	180
0	2293	193.41626821415	180
0	2297	194.01514033147	180
0	2310	195.96933626433	180
0	2314	196.30084720849	180
0	2331	198.02652772925	180
0	2349	199.98547410703	180
0	2482	203.38503123475	180
0	2496	204.28887076087	180
0	2527	206.14688366297	180
0	2538	206.84180910447	180
0	2542	206.90582733361	180
0	2566	209.23707043849	180
0	2580	210.0411762378	180
0	2594	211.2613609712	180
0	2602	213.59731068116	180
0	2637	218.47673713572	180
0	2647	219.20162508942	180
0	2683	221.3316571223	180
0	2687	221.48385199583	180
0	2701	222.44157338223	180
0	2712	224.15975954095	180
0	2722	225.71352973094	180
0	2733	226.19249941424	180
0	2751	227.70501806394	180
0	2782	229.21863928897	180
0	2818	232.64450611256	180
0	2822	232.69352785407	180
0	2828	232.76981798576	180
0	2841	234.50971383699	180
0	2854	237.56629352984	180
0	2885	240.25828334794	180
0	2918	242.41140023632	180
0	2924	242.5682789075	180
0	2944	243.42602212558	180
0	2958	244.25364807009	180
0	2974	245.07866390808	180
0	2998	248.3560196677	180
0	3002	248.61758129537	180
0	3012	249.46010148962	180
0	3019	250.73334494897	180
0	3116	251.17542491055	180
0	3134	252.74557286816	180
0	3142	253.53437693071	180
0	3146	253.55626716389	180
0	3159	254.72310753364	180
0	3171	255.3428732078	180
0	3177	255.79661697675	180
0	3202	258.04587488056	180
0	3224	259.78607139195	180
0	3228	259.87412010418	180
0	3232	259.93264876016	180
0	3284	266.41364439683	180
0	3306	268.21130041442	180
0	3316	268.81718376762	180
0	3322	269.24432137496	180
0	3334	270.4021521128	180
0	3369	273.24774609872	180
0	3389	276.85231980696	180
0	3405	280.77995142776	180
0	3428	282.96478611178	180
0	3441	284.42981548085	180
0	3452	286.8952519569	180
0	3471	288.31287811568	180
0	3483	289.88811944242	180
0	3492	291.92329770362	180
0	3511	293.55976464324	180
0	3525	295.19470266643	180
0	3632	301.78834821193	180
0	3654	306.6193755762	180
0	3668	308.78916546529	180
0	3677	310.37845202314	180
0	3692	315.26407822713	180
0	3702	316.14527854546	180
0	3727	322.71060882235	180
0	3737	326.55226053081	180
0	3751	328.14315739533	180
0	3778	339.36913251006	180
0	3793	344.51569179249	180
0	3808	346.22231506956	180
0	3816	347.38265472807	180
0	3828	350.55120004865	180
0	3926	352.13362585464	180
0	3939	353.36531822399	180
0	3944	353.96143302303	180
0	3979	362.70028745969	180
0	4011	368.33870417147	180
0	4018	368.65678174648	180
0	4033	373.75930164353	180
0	4045	377.50459094978	180
0	4054	379.06405314514	180
0	4063	380.15123417013	180
0	4204	402.10038874475	180
0	4214	403.8129929917	180
0	4229	407.84690940811	180
0	4245	410.55944658577	180
0	4249	410.62780873095	180
0	4265	412.8088598324	180
0	4283	415.76678637525	180
0	4294	417.33330523224	180
0	4298	418.1101435848	180
0	4308	418.89888818603	180
0	4313	420.13137982325	180
0	4330	422.30044927624	180
0	4335	422.69214474343	180
0	4344	423.65896498611	180
0	4355	427.79159979138	180
0	4388	439.41515159853	180
0	4399	442.36200809692	180
0	4415	444.55608576982	180
0	4428	445.43937301439	180
0	4441	447.84735162489	180
0	4547	453.21239885157	180
0	4573	462.86470275467	180
0	4596	467.85770818573	180
0	4614	476.17881325867	180
0	4629	479.47731313355	180
0	4638	481.18221973513	180
0	4655	483.50654152567	180
0	4659	483.59401773956	180
0	4686	492.10348376518	180
0	4697	496.24113077509	180
0	4706	497.91823027948	180
0	4827	503.81084149801	180
0	4832	503.96403013439	180
0	4853	507.77100886394	180
0	4876	514.48076836977	180
0	4888	516.63012456841	180
0	4893	517.04967509817	180
0	4911	518.50578783257	180
0	4918	520.02224148932	180
0	4938	523.20537184941	180
0	4950	525.57420196537	180
0	4959	526.6548177691	180
0	4977	532.71594068597	180
0	4990	534.8740630184	180
0	5002	537.11845120397	180
0	5014	539.45686758376	180
0	5026	541.20442907436	180
0	5030	541.53612392585	180
0	5045	545.2069041267	180
0	5056	547.54194032977	180
0	5189	551.21337041837	180
0	5216	565.55061884517	180
0	5221	566.27962912413	180
0	5242	575.46361018265	180
0	5253	576.56717699081	180
0	5259	577.41267758751	180
0	5274	579.54768959427	180
0	5280	579.66607446064	180
0	5425	602.83975347624	180
0	5438	603.87106530662	180
0	5453	608.46316584729	180
0	5463	610.05391926369	180
0	5493	616.37482769731	180
0	5503	617.70966231222	180
0	5524	621.02598245781	180
0	5538	622.7059315768	180
0	5599	637.51955097601	180
0	5622	641.61305733368	180
0	5628	642.44766538245	180
0	5644	646.44666310342	180
0	5659	649.31971620167	180
0	5663	649.36576791051	180
0	5798	657.13938088449	180
0	5812	658.02337684146	180
0	5820	658.8263561047	180
0	5825	659.13714002566	180
0	5833	660.05379438344	180
0	5852	662.90583641015	180
0	5861	666.25602199872	180
0	5871	668.60032955594	180
0	5889	670.84626653212	180
0	5900	673.37404339088	180
0	5961	685.39356574009	180
0	5970	687.24259591954	180
0	6132	701.15878116398	180
0	6154	706.65015744455	180
0	6163	707.60777029269	180
0	6178	711.33049509701	180
0	6353	738.51444921865	180
0	6367	740.43941789365	180
0	6404	748.54537937073	180
1	143	7.86909151816	180
1	339	30.86078581045	180
1	542	50.74345935363	180
1	1235	102.76335978525	180
1	1443	123.76231503783	180
1	1630	141.15215018967	180
1	1862	153.09437973069	180
1	2110	177.035238248	180
1	2286	193.04899909644	180
1	2594	211.2613609712	180
1	2782	229.21863928897	180
1	3012	249.46010148962	180
1	3316	268.81718376762	180
2	143	7.86909151816	6.86909151816
2	339	30.86078581045	29.86078581045
2	343	31.60427572614	30.60427572614
2	348	32.10012418082	31.10012418082
2	357	33.14555962165	32.14555962165
2	403	37.58836602037	36.58836602037
2	466	43.89270803872	42.89270803872
2	470	44.1793557635	43.1793557635
2	481	45.35184878217	44.35184878217
2	542	50.74345935363	49.74345935363
2	652	53.10583213288	52.10583213288
2	691	56.71219950834	55.71219950834
2	753	62.96654461397	61.96654461397
2	775	65.78764709624	64.78764709624
2	788	68.23366369451	67.23366369451
2	792	68.30918962428	67.30918962428
2	928	79.45794667177	78.45794667177
2	932	79.7668796182	78.7668796182
2	941	80.32285953749	79.32285953749
2	976	86.72896701903	85.72896701903
2	991	87.77704015005	86.77704015005
2	1052	92.95290196541	91.95290196541
2	1088	96.44189481487	95.44189481487
2	1113	99.4583067076	98.4583067076
2	1225	101.08339313049	100.08339313049
2	1235	102.76335978525	101.76335978525
2	1250	103.70309038497	102.70309038497
2	1311	109.05167436337	108.05167436337
2	1341	113.78554189442	112.78554189442
2	1348	114.42384719377	113.42384719377
2	1365	115.94685734941	114.94685734941
2	1369	116.2958527863	115.2958527863
2	1413	120.47799507217	119.47799507217
2	1421	120.96507793156	119.96507793156
2	1443	123.76231503783	122.76231503783
2	1447	124.27454721279	123.27454721279
2	1463	125.27123397908	124.27123397908
2	1481	128.11818388116	127.11818388116
2	1521	131.10271793887	130.10271793887
2	1557	132.54545718658	131.54545718658
2	1569	134.00694810496	133.00694810496
2	1600	136.87254743282	135.87254743282
2	1630	141.15215018967	140.15215018967
2	1678	144.69362612458	143.69362612458
2	1695	146.09184690345	145.09184690345
2	1730	148.0173822643	147.0173822643
2	1742	148.5322867566	147.5322867566
2	1747	149.1723372599	148.1723372599
2	1862	153.09437973069	152.09437973069
2	1867	153.1885911705	152.1885911705
2	1885	156.18796638426	155.18796638426
2	1895	157.53058978416	156.53058978416
2	1906	158.85317901674	157.85317901674
2	1951	162.0540446799	161.0540446799
2	1975	164.48127394768	163.48127394768
2	1996	166.17022310131	165.17022310131
2	2003	166.6331904311	165.6331904311
2	2024	168.06359458191	167.06359458191
2	2036	169.04082332719	168.04082332719
2	2047	170.24284497661	169.24284497661
2	2110	177.035238248	176.035238248
2	2116	177.58360260574	176.58360260574
2	2126	178.43845896715	177.43845896715
2	2133	179.39322240644	178.39322240644
2	2153	181.44819244919	180.44819244919
2	2164	181.98148878504	180.98148878504
2	2172	183.02000034477	182.02000034477
2	2215	185.31384595663	184.31384595663
2	2234	187.08220448093	186.08220448093
2	2261	190.37695135165	189.37695135165
2	2270	191.70245436119	190.70245436119
2	2277	191.84394604935	190.84394604935
2	2286	193.04899909644	192.04899909644
2	2293	193.41626821415	192.41626821415
2	2297	194.01514033147	193.01514033147
2	2310	195.96933626433	194.96933626433
2	2314	196.30084720849	195.30084720849
2	2331	198.02652772925	197.02652772925
2	2349	199.98547410703	198.98547410703
2	2482	203.38503123475	202.38503123475
2	2496	204.28887076087	203.28887076087
2	2527	206.14688366297	205.14688366297
2	2538	206.84180910447	205.84180910447
2	2542	206.90582733361	205.90582733361
2	2566	209.23707043849	208.23707043849
2	2580	210.0411762378	209.0411762378
2	2594	211.2613609712	210.2613609712
2	2602	213.59731068116	212.59731068116
2	2637	218.47673713572	217.47673713572
2	2647	219.20162508942	218.20162508942
2	2683	221.3316571223	220.3316571223
2	2687	221.48385199583	220.48385199583
2	2701	222.44157338223	221.44157338223
2	2712	224.15975954095	223.15975954095
2	2722	225.71352973094	224.71352973094
2	2733	226.19249941424	225.19249941424
2	2751	227.70501806394	226.70501806394
2	2782	229.21863928897	228.21863928897
2	2818	232.64450611256	231.64450611256
2	2822	232.69352785407	231.69352785407
2	2828	232.76981798576	231.76981798576
2	2841	234.50971383699	233.50971383699
2	2854	237.56629352984	236.56629352984
2	2885	240.25828334794	239.25828334794
2	2918	242.41140023632	241.41140023632
2	2924	242.5682789075	241.5682789075
2	2944	243.42602212558	242.42602212558
2	2958	244.25364807009	243.25364807009
2	2974	245.07866390808	244.07866390808
2	2998	248.3560196677	247.3560196677
2	3002	248.61758129537	247.61758129537
2	3012	249.46010148962	248.46010148962
2	3019	250.73334494897	249.73334494897
2	3116	251.17542491055	250.17542491055
2	3134	252.74557286816	251.74557286816
2	3142	253.53437693071	252.53437693071
2	3146	253.55626716389	252.55626716389
2	3159	254.72310753364	253.72310753364
2	3171	255.3428732078	254.3428732078
2	3177	255.79661697675	254.79661697675
2	3202	258.04587488056	257.04587488056
2	3224	259.78607139195	258.78607139195
2	3228	259.87412010418	258.87412010418
2	3232	259.93264876016	258.93264876016
2	3284	266.41364439683	265.41364439683
2	3306	268.21130041442	267.21130041442
2	3316	268.81718376762	267.81718376762
2	3322	269.24432137496	268.24432137496
2	3334	270.4021521128	269.4021521128
2	3369	273.24774609872	272.24774609872
2	3389	276.85231980696	275.85231980696
2	3405	280.77995142776	279.77995142776
2	3428	282.96478611178	281.96478611178
2	3441	284.42981548085	283.42981548085
2	3452	286.8952519569	285.8952519569
2	3471	288.31287811568	287.31287811568
2	3483	289.88811944242	288.88811944242
2	3492	291.92329770362	290.92329770362
2	3511	293.55976464324	292.55976464324
2	3525	295.19470266643	294.19470266643
2	3632	301.78834821193	300.78834821193
2	3654	306.6193755762	305.6193755762
2	3668	308.78916546529	307.78916546529
2	3677	310.37845202314	309.37845202314
2	3692	315.26407822713	314.26407822713
2	3702	316.14527854546	315.14527854546
2	3727	322.71060882235	321.71060882235
2	3737	326.55226053081	325.55226053081
2	3751	328.14315739533	327.14315739533
2	3778	339.36913251006	338.36913251006
2	3793	344.51569179249	343.51569179249
2	3808	346.22231506956	345.22231506956
2	3816	347.38265472807	346.38265472807
2	3828	350.55120004865	349.55120004865
2	3926	352.13362585464	351.13362585464
2	3939	353.36531822399	352.36531822399
2	3944	353.96143302303	352.96143302303
2	3979	362.70028745969	361.70028745969
2	4011	368.33870417147	367.33870417147
2	4018	368.65678174648	367.65678174648
2	4033	373.75930164353	372.75930164353
2	4045	377.50459094978	376.50459094978
2	4054	379.06405314514	378.06405314514
2	4063	380.15123417013	379.15123417013
2	4204	402.10038874475	401.10038874475
2	4214	403.8129929917	402.8129929917
2	4229	407.84690940811	406.84690940811
2	4245	410.55944658577	409.55944658577
2	4249	410.62780873095	409.62780873095
2	4265	412.8088598324	411.8088598324
2	4283	415.76678637525	414.76678637525
2	4294	417.33330523224	416.33330523224
2	4298	418.1101435848	417.1101435848
2	4308	418.89888818603	417.89888818603
2	4313	420.13137982325	419.13137982325
2	4330	422.30044927624	421.30044927624
2	4335	422.69214474343	421.69214474343
2	4344	423.65896498611	422.65896498611
2	4355	427.79159979138	426.79159979138
2	4388	439.41515159853	438.41515159853
2	4399	442.36200809692	441.36200809692
2	4415	444.55608576982	443.55608576982
2	4428	445.43937301439	444.43937301439
2	4441	447.84735162489	446.84735162489
2	4547	453.21239885157	452.21239885157
2	4573	462.86470275467	461.86470275467
2	4596	467.85770818573	466.85770818573
2	4614	476.17881325867	475.17881325867
2	4629	479.47731313355	478.47731313355
2	4638	481.18221973513	480.18221973513
2	4655	483.50654152567	482.50654152567
2	4659	483.59401773956	482.59401773956
2	4686	492.10348376518	491.10348376518
2	4697	496.24113077509	495.24113077509
2	4706	497.91823027948	496.91823027948
2	4827	503.81084149801	502.81084149801
2	4832	503.96403013439	502.96403013439
2	4853	507.77100886394	506.77100886394
2	4876	514.48076836977	513.48076836977
2	4888	516.63012456841	515.63012456841
2	4893	517.04967509817	516.04967509817
2	4911	518.50578783257	517.50578783257
2	4918	520.02224148932	519.02224148932
2	4938	523.20537184941	522.20537184941
2	4950	525.57420196537	524.57420196537
2	4959	526.6548177691	525.6548177691
2	4977	532.71594068597	531.71594068597
2	4990	534.8740630184	533.8740630184
2	5002	537.11845120397	536.11845120397
2	5014	539.45686758376	538.45686758376
2	5026	541.20442907436	540.20442907436
2	5030	541.53612392585	540.53612392585
2	5045	545.2069041267	544.2069041267
2	5056	547.54194032977	546.54194032977
2	5189	551.21337041837	550.21337041837
2	5216	565.55061884517	564.55061884517
2	5221	566.27962912413	565.27962912413
2	5242	575.46361018265	574.46361018265
2	5253	576.56717699081	575.56717699081
2	5259	577.41267758751	576.41267758751
2	5274	579.54768959427	578.54768959427
2	5280	579.66607446064	578.66607446064
2	5425	602.83975347624	601.83975347624
2	5438	603.87106530662	602.87106530662
2	5453	608.46316584729	607.46316584729
2	5463	610.05391926369	609.05391926369
2	5493	616.37482769731	615.37482769731
2	5503	617.70966231222	616.70966231222
2	5524	621.02598245781	620.02598245781
2	5538	622.7059315768	621.7059315768
2	5599	637.51955097601	636.51955097601
2	5622	641.61305733368	640.61305733368
2	5628	642.44766538245	641.44766538245
2	5644	646.44666310342	645.44666310342
2	5659	649.31971620167	648.31971620167
2	5663	649.36576791051	648.36576791051
2	5798	657.13938088449	656.13938088449
2	5812	658.02337684146	657.02337684146
2	5820	658.8263561047	657.8263561047
2	5825	659.13714002566	658.13714002566
2	5833	660.05379438344	659.05379438344
2	5852	662.90583641015	661.90583641015
2	5861	666.25602199872	665.25602199872
2	5871	668.60032955594	667.60032955594
2	5889	670.84626653212	669.84626653212
2	5900	673.37404339088	672.37404339088
2	5961	685.39356574009	684.39356574009
2	5970	687.24259591954	686.24259591954
2	6132	701.15878116398	700.15878116398
2	6154	706.65015744455	705.65015744455
2	6163	707.60777029269	706.60777029269
2	6178	711.33049509701	710.33049509701
2	6353	738.51444921865	737.51444921865
2	6367	740.43941789365	739.43941789365
2	6404	748.54537937073	747.54537937073
3	143	7.86909151816	6.86909151816
3	339	30.86078581045	29.86078581045
3	542	50.74345935363	49.74345935363
3	1235	102.76335978525	101.76335978525
3	1443	123.76231503783	122.76231503783
3	1630	141.15215018967	140.15215018967
3	1862	153.09437973069	152.09437973069
3	2110	177.035238248	176.035238248
3	2286	193.04899909644	192.04899909644
3	2594	211.2613609712	210.2613609712
3	2782	229.21863928897	228.21863928897
3	3012	249.46010148962	248.46010148962
3	3316	268.81718376762	267.81718376762
4	143	7.86909151816	6.86909151816
4	343	31.60427572614	30.60427572614
4	348	32.10012418082	31.10012418082
4	357	33.14555962165	32.14555962165
4	403	37.58836602037	36.58836602037
4	470	44.1793557635	43.1793557635
4	481	45.35184878217	44.35184878217
4	753	62.96654461397	61.96654461397
4	775	65.78764709624	64.78764709624
4	941	80.32285953749	79.32285953749
4	991	87.77704015005	86.77704015005
4	1052	92.95290196541	91.95290196541
4	1113	99.4583067076	98.4583067076
4	1225	101.08339313049	100.08339313049
4	1311	109.05167436337	108.05167436337
4	1463	125.27123397908	124.27123397908
4	1481	128.11818388116	127.11818388116
4	2126	178.43845896715	177.43845896715
4	2270	191.70245436119	190.70245436119
4	2527	206.14688366297	205.14688366297
4	2538	206.84180910447	205.84180910447
4	2566	209.23707043849	208.23707043849
4	2712	224.15975954095	223.15975954095
4	2818	232.64450611256	231.64450611256
4	3441	284.42981548085	283.42981548085
4	3632	301.78834821193	300.78834821193
4	3778	339.36913251006	338.36913251006
4	4249	410.62780873095	409.62780873095
4	4573	462.86470275467	461.86470275467
5	143	7.86909151816	6.86909151816
6	144	7.86909151816	1
6	340	30.86078581045	2
6	344	31.60427572614	3
6	349	32.10012418082	4
6	358	33.14555962165	5
6	404	37.58836602037	6
6	467	43.89270803872	7
6	471	44.1793557635	8
6	482	45.35184878217	9
6	543	50.74345935363	10
6	653	53.10583213288	11
6	692	56.71219950834	12
6	754	62.96654461397	13
6	776	65.78764709624	14
6	789	68.23366369451	15
6	793	68.30918962428	16
6	929	79.45794667177	17
6	933	79.7668796182	18
6	942	80.32285953749	19
6	977	86.72896701903	20
6	992	87.77704015005	21
6	1053	92.95290196541	22
6	1089	96.44189481487	23
6	1114	99.4583067076	24
6	1226	101.08339313049	25
6	1236	102.76335978525	26
6	1251	103.70309038497	27
6	1312	109.05167436337	28
6	1342	113.78554189442	29
6	1349	114.42384719377	30
6	1366	115.94685734941	31
6	1370	116.2958527863	32
6	1414	120.47799507217	33
6	1422	120.96507793156	34
6	1444	123.76231503783	35
6	1448	124.27454721279	36
6	1464	125.27123397908	37
6	1482	128.11818388116	38
6	1522	131.10271793887	39
6	1558	132.54545718658	40
6	1570	134.00694810496	41
6	1601	136.87254743282	42
6	1631	141.15215018967	43
6	1679	144.69362612458	44
6	1696	146.09184690345	45
6	1731	148.0173822643	46
6	1743	148.5322867566	47
6	1748	149.1723372599	48
6	1863	153.09437973069	49
6	1868	153.1885911705	50
6	1886	156.18796638426	51
6	1896	157.53058978416	52
6	1907	158.85317901674	53
6	1952	162.0540446799	54
6	1976	164.48127394768	55
6	1997	166.17022310131	56
6	2004	166.6331904311	57
6	2025	168.06359458191	58
6	2037	169.04082332719	59
6	2048	170.24284497661	60
6	2111	177.035238248	61
6	2117	177.58360260574	62
6	2127	178.43845896715	63
6	2134	179.39322240644	64
6	2154	181.44819244919	65
6	2165	181.98148878504	66
6	2173	183.02000034477	67
6	2216	185.31384595663	68
6	2235	187.08220448093	69
6	2262	190.37695135165	70
6	2271	191.70245436119	71
6	2278	191.84394604935	72
6	2287	193.04899909644	73
6	2294	193.41626821415	74
6	2298	194.01514033147	75
6	2311	195.96933626433	76
6	2315	196.30084720849	77
6	2332	198.02652772925	78
6	2350	199.98547410703	79
6	2483	203.38503123475	80
6	2497	204.28887076087	81
6	2528	206.14688366297	82
6	2539	206.84180910447	83
6	2543	206.90582733361	84
6	2567	209.23707043849	85
6	2581	210.0411762378	86
6	2595	211.2613609712	87
6	2603	213.59731068116	88
6	2638	218.47673713572	89
6	2648	219.20162508942	90
6	2684	221.3316571223	91
6	2688	221.48385199583	92
6	2702	222.44157338223	93
6	2713	224.15975954095	94
6	2723	225.71352973094	95
6	2734	226.19249941424	96
6	2752	227.70501806394	97
6	2783	229.21863928897	98
6	2819	232.64450611256	99
6	2823	232.69352785407	100
6	2829	232.76981798576	101
6	2842	234.50971383699	102
6	2855	237.56629352984	103
6	2886	240.25828334794	104
6	2919	242.41140023632	105
6	2925	242.5682789075	106
6	2945	243.42602212558	107
6	2959	244.25364807009	108
6	2975	245.07866390808	109
6	2999	248.3560196677	110
6	3003	248.61758129537	111
6	3013	249.46010148962	112
6	3020	250.73334494897	113
6	3117	251.17542491055	114
6	3135	252.74557286816	115
6	3143	253.53437693071	116
6	3147	253.55626716389	117
6	3160	254.72310753364	118
6	3172	255.3428732078	119
6	3178	255.79661697675	120
6	3203	258.04587488056	121
6	3225	259.78607139195	122
6	3229	259.87412010418	123
6	3233	259.93264876016	124
6	3285	266.41364439683	125
6	3307	268.21130041442	126
6	3317	268.81718376762	127
6	3323	269.24432137496	128
6	3335	270.4021521128	129
6	3370	273.24774609872	130
6	3390	276.85231980696	131
6	3406	280.77995142776	132
6	3429	282.96478611178	133
6	3442	284.42981548085	134
6	3453	286.8952519569	135
6	3472	288.31287811568	136
6	3484	289.88811944242	137
6	3493	291.92329770362	138
6	3512	293.55976464324	139
6	3526	295.19470266643	140
6	3633	301.78834821193	141
6	3655	306.6193755762	142
6	3669	308.78916546529	143
6	3678	310.37845202314	144
6	3693	315.26407822713	145
6	3703	316.14527854546	146
6	3728	322.71060882235	147
6	3738	326.55226053081	148
6	3752	328.14315739533	149
6	3779	339.36913251006	150
6	3794	344.51569179249	151
6	3809	346.22231506956	152
6	3817	347.38265472807	153
6	3829	350.55120004865	154
6	3927	352.13362585464	155
6	3940	353.36531822399	156
6	3945	353.96143302303	157
6	3980	362.70028745969	158
6	4012	368.33870417147	159
6	4019	368.65678174648	160
6	4034	373.75930164353	161
6	4046	377.50459094978	162
6	4055	379.06405314514	163
6	4064	380.15123417013	164
6	4205	402.10038874475	165
6	4215	403.8129929917	166
6	4230	407.84690940811	167
6	4246	410.55944658577	168
6	4250	410.62780873095	169
6	4266	412.8088598324	170
6	4284	415.76678637525	171
6	4295	417.33330523224	172
6	4299	418.1101435848	173
6	4309	418.89888818603	174
6	4314	420.13137982325	175
6	4331	422.30044927624	176
6	4336	422.69214474343	177
6	4345	423.65896498611	178
6	4356	427.79159979138	179
6	4389	439.41515159853	180
6	4400	442.36200809692	181
6	4416	444.55608576982	182
6	4429	445.43937301439	183
6	4442	447.84735162489	184
6	4548	453.21239885157	185
6	4574	462.86470275467	186
6	4597	467.85770818573	187
6	4615	476.17881325867	188
6	4630	479.47731313355	189
6	4639	481.18221973513	190
6	4656	483.50654152567	191
6	4660	483.59401773956	192
6	4687	492.10348376518	193
6	4698	496.24113077509	194
6	4707	497.91823027948	195
6	4828	503.81084149801	196
6	4833	503.96403013439	197
6	4854	507.77100886394	198
6	4877	514.48076836977	199
6	4889	516.63012456841	200
6	4894	517.04967509817	201
6	4912	518.50578783257	202
6	4919	520.02224148932	203
6	4939	523.20537184941	204
6	4951	525.57420196537	205
6	4960	526.6548177691	206
6	4978	532.71594068597	207
6	4991	534.8740630184	208
6	5003	537.11845120397	209
6	5015	539.45686758376	210
6	5027	541.20442907436	211
6	5031	541.53612392585	212
6	5046	545.2069041267	213
6	5057	547.54194032977	214
6	5190	551.21337041837	215
6	5217	565.55061884517	216
6	5222	566.27962912413	217
6	5243	575.46361018265	218
6	5254	576.56717699081	219
6	5260	577.41267758751	220
6	5275	579.54768959427	221
6	5281	579.66607446064	222
6	5426	602.83975347624	223
6	5439	603.87106530662	224
6	5454	608.46316584729	225
6	5464	610.05391926369	226
6	5494	616.37482769731	227
6	5504	617.70966231222	228
6	5525	621.02598245781	229
6	5539	622.7059315768	230
6	5600	637.51955097601	231
6	5623	641.61305733368	232
6	5629	642.44766538245	233
6	5645	646.44666310342	234
6	5660	649.31971620167	235
6	5664	649.36576791051	236
6	5799	657.13938088449	237
6	5813	658.02337684146	238
6	5821	658.8263561047	239
6	5826	659.13714002566	240
6	5834	660.05379438344	241
6	5853	662.90583641015	242
6	5862	666.25602199872	243
6	5872	668.60032955594	244
6	5890	670.84626653212	245
6	5901	673.37404339088	246
6	5962	685.39356574009	247
6	5971	687.24259591954	248
6	6133	701.15878116398	249
6	6155	706.65015744455	250
6	6164	707.60777029269	251
6	6179	711.33049509701	252
6	6354	738.51444921865	253
6	6368	740.43941789365	254
6	6405	748.54537937073	255
7	144	7.86909151816	1
7	340	30.86078581045	2
7	344	31.60427572614	3
7	349	32.10012418082	4
7	358	33.14555962165	5
7	404	37.58836602037	6
7	467	43.89270803872	7
7	471	44.1793557635	8
7	482	45.35184878217	9
7	543	50.74345935363	10
7	653	53.10583213288	11
7	692	56.71219950834	12
7	754	62.96654461397	13
7	776	65.78764709624	14
7	789	68.23366369451	15
7	793	68.30918962428	16
7	929	79.45794667177	17
7	933	79.7668796182	18
7	942	80.32285953749	19
7	977	86.72896701903	20
7	992	87.77704015005	21
7	1053	92.95290196541	22
7	1089	96.44189481487	23
7	1114	99.4583067076	24
7	1226	101.08339313049	25
7	1236	102.76335978525	26
7	1251	103.70309038497	27
7	1312	109.05167436337	28
7	1342	113.78554189442	29
7	1349	114.42384719377	30
7	1366	115.94685734941	31
7	1370	116.2958527863	32
7	1414	120.47799507217	33
7	1422	120.96507793156	34
7	1444	123.76231503783	35
7	1448	124.27454721279	36
7	1464	125.27123397908	37
7	1482	128.11818388116	38
7	1522	131.10271793887	39
7	1558	132.54545718658	40
7	1570	134.00694810496	41
7	1601	136.87254743282	42
7	1631	141.15215018967	43
7	1679	144.69362612458	44
7	1696	146.09184690345	45
7	1731	148.0173822643	46
7	1743	148.5322867566	47
7	1748	149.1723372599	48
7	1863	153.09437973069	49
7	1868	153.1885911705	50
7	1886	156.18796638426	51
7	1896	157.53058978416	52
7	1907	158.85317901674	53
7	1952	162.0540446799	54
7	1976	164.48127394768	55
7	1997	166.17022310131	56
7	2004	166.6331904311	57
7	2025	168.06359458191	58
7	2037	169.04082332719	59
7	2048	170.24284497661	60
7	2111	177.035238248	61
7	2117	177.58360260574	62
7	2127	178.43845896715	63
7	2134	179.39322240644	64
7	2154	181.44819244919	65
7	2165	181.98148878504	66
7	2173	183.02000034477	67
7	2216	185.31384595663	68
7	2235	187.08220448093	69
7	2262	190.37695135165	70
7	2271	191.70245436119	71
7	2278	191.84394604935	72
7	2287	193.04899909644	73
7	2294	193.41626821415	74
7	2298	194.01514033147	75
7	2311	195.96933626433	76
7	2315	196.30084720849	77
7	2332	198.02652772925	78
7	2350	199.98547410703	79
7	2483	203.38503123475	80
7	2497	204.28887076087	81
7	2528	206.14688366297	82
7	2539	206.84180910447	83
7	2543	206.90582733361	84
7	2567	209.23707043849	85
7	2581	210.0411762378	86
7	2595	211.2613609712	87
7	2603	213.59731068116	88
7	2638	218.47673713572	89
7	2648	219.20162508942	90
7	2684	221.3316571223	91
7	2688	221.48385199583	92
7	2702	222.44157338223	93
7	2713	224.15975954095	94
7	2723	225.71352973094	95
7	2734	226.19249941424	96
7	2752	227.70501806394	97
7	2783	229.21863928897	98
7	2819	232.64450611256	99
7	2823	232.69352785407	100
7	2829	232.76981798576	101
7	2842	234.50971383699	102
7	2855	237.56629352984	103
7	2886	240.25828334794	104
7	2919	242.41140023632	105
7	2925	242.5682789075	106
7	2945	243.42602212558	107
7	2959	244.25364807009	108
7	2975	245.07866390808	109
7	2999	248.3560196677	110
7	3003	248.61758129537	111
7	3013	249.46010148962	112
7	3020	250.73334494897	113
7	3117	251.17542491055	114
7	3135	252.74557286816	115
7	3143	253.53437693071	116
7	3147	253.55626716389	117
7	3160	254.72310753364	118
7	3172	255.3428732078	119
7	3178	255.79661697675	120
7	3203	258.04587488056	121
7	3225	259.78607139195	122
7	3229	259.87412010418	123
7	3233	259.93264876016	124
7	3285	266.41364439683	125
7	3307	268.21130041442	126
7	3317	268.81718376762	127
7	3323	269.24432137496	128
7	3335	270.4021521128	129
7	3370	273.24774609872	130
7	3390	276.85231980696	131
7	3406	280.77995142776	132
7	3429	282.96478611178	133
7	3442	284.42981548085	134
7	3453	286.8952519569	135
7	3472	288.31287811568	136
7	3484	289.88811944242	137
7	3493	291.92329770362	138
7	3512	293.55976464324	139
7	3526	295.19470266643	140
7	3633	301.78834821193	141
7	3655	306.6193755762	142
7	3669	308.78916546529	143
7	3678	310.37845202314	144
7	3693	315.26407822713	145
7	3703	316.14527854546	146
7	3728	322.71060882235	147
7	3738	326.55226053081	148
7	3752	328.14315739533	149
7	3779	339.36913251006	150
7	3794	344.51569179249	151
7	3809	346.22231506956	152
7	3817	347.38265472807	153
7	3829	350.55120004865	154
7	3927	352.13362585464	155
7	3940	353.36531822399	156
7	3945	353.96143302303	157
7	3980	362.70028745969	158
7	4012	368.33870417147	159
7	4019	368.65678174648	160
7	4034	373.75930164353	161
7	4046	377.50459094978	162
7	4055	379.06405314514	163
7	4064	380.15123417013	164
7	4205	402.10038874475	165
7	4215	403.8129929917	166
7	4230	407.84690940811	167
7	4246	410.55944658577	168
7	4250	410.62780873095	169
7	4266	412.8088598324	170
7	4284	415.76678637525	171
7	4295	417.33330523224	172
7	4299	418.1101435848	173
7	4309	418.89888818603	174
7	4314	420.13137982325	175
7	4331	422.30044927624	176
7	4336	422.69214474343	177
7	4345	423.65896498611	178
7	4356	427.79159979138	179
7	4389	439.41515159853	180
7	4400	442.36200809692	181
7	4416	444.55608576982	182
7	4429	445.43937301439	183
7	4442	447.84735162489	184
7	4548	453.21239885157	185
7	4574	462.86470275467	186
7	4597	467.85770818573	187
7	4615	476.17881325867	188
7	4630	479.47731313355	189
7	4639	481.18221973513	190
7	4656	483.50654152567	191
7	4660	483.59401773956	192
7	4687	492.10348376518	193
7	4698	496.24113077509	194
7	4707	497.91823027948	195
7	4828	503.81084149801	196
7	4833	503.96403013439	197
7	4854	507.77100886394	198
7	4877	514.48076836977	199
7	4889	516.63012456841	200
7	4894	517.04967509817	201
7	4912	518.50578783257	202
7	4919	520.02224148932	203
7	4939	523.20537184941	204
7	4951	525.57420196537	205
7	4960	526.6548177691	206
7	4978	532.71594068597	207
7	4991	534.8740630184	208
7	5003	537.11845120397	209
7	5015	539.45686758376	210
7	5027	541.20442907436	211
7	5031	541.53612392585	212
7	5046	545.2069041267	213
7	5057	547.54194032977	214
7	5190	551.21337041837	215
7	5217	565.55061884517	216
7	5222	566.27962912413	217
7	5243	575.46361018265	218
7	5254	576.56717699081	219
7	5260	577.41267758751	220
7	5275	579.54768959427	221
7	5281	579.66607446064	222
7	5426	602.83975347624	223
7	5439	603.87106530662	224
7	5454	608.46316584729	225
7	5464	610.05391926369	226
7	5494	616.37482769731	227
7	5504	617.70966231222	228
7	5525	621.02598245781	229
7	5539	622.7059315768	230
7	5600	637.51955097601	231
7	5623	641.61305733368	232
7	5629	642.44766538245	233
7	5645	646.44666310342	234
7	5660	649.31971620167	235
7	5664	649.36576791051	236
7	5799	657.13938088449	237
7	5813	658.02337684146	238
7	5821	658.8263561047	239
7	5826	659.13714002566	240
7	5834	660.05379438344	241
7	5853	662.90583641015	242
7	5862	666.25602199872	243
7	5872	668.60032955594	244
7	5890	670.84626653212	245
7	5901	673.37404339088	246
7	5962	685.39356574009	247
7	5971	687.24259591954	248
7	6133	701.15878116398	249
7	6155	706.65015744455	250
7	6164	707.60777029269	251
7	6179	711.33049509701	252
7	6354	738.51444921865	253
7	6368	740.43941789365	254
7	6405	748.54537937073	255
8	144	7.86909151816	1
8	340	30.86078581045	2
8	344	31.60427572614	3
8	349	32.10012418082	4
8	358	33.14555962165	5
8	404	37.58836602037	6
8	467	43.89270803872	7
8	471	44.1793557635	8
8	482	45.35184878217	9
8	543	50.74345935363	10
8	653	53.10583213288	11
8	692	56.71219950834	12
8	754	62.96654461397	13
8	776	65.78764709624	14
8	789	68.23366369451	15
8	793	68.30918962428	16
8	929	79.45794667177	17
8	933	79.7668796182	18
8	942	80.32285953749	19
8	977	86.72896701903	20
8	992	87.77704015005	21
8	1053	92.95290196541	22
8	1089	96.44189481487	23
8	1114	99.4583067076	24
8	1226	101.08339313049	25
8	1236	102.76335978525	26
8	1251	103.70309038497	27
8	1312	109.05167436337	28
8	1342	113.78554189442	29
8	1349	114.42384719377	30
8	1366	115.94685734941	31
8	1370	116.2958527863	32
8	1414	120.47799507217	33
8	1422	120.96507793156	34
8	1444	123.76231503783	35
8	1448	124.27454721279	36
8	1464	125.27123397908	37
8	1482	128.11818388116	38
8	1522	131.10271793887	39
8	1558	132.54545718658	40
8	1570	134.00694810496	41
8	1601	136.87254743282	42
8	1631	141.15215018967	43
8	1679	144.69362612458	44
8	1696	146.09184690345	45
8	1731	148.0173822643	46
8	1743	148.5322867566	47
8	1748	149.1723372599	48
8	1863	153.09437973069	49
8	1868	153.1885911705	50
8	1886	156.18796638426	51
8	1896	157.53058978416	52
8	1907	158.85317901674	53
8	1952	162.0540446799	54
8	1976	164.48127394768	55
8	1997	166.17022310131	56
8	2004	166.6331904311	57
8	2025	168.06359458191	58
8	2037	169.04082332719	59
8	2048	170.24284497661	60
8	2111	177.035238248	61
8	2117	177.58360260574	62
8	2127	178.43845896715	63
8	2134	179.39322240644	64
8	2154	181.44819244919	65
8	2165	181.98148878504	66
8	2173	183.02000034477	67
8	2216	185.31384595663	68
8	2235	187.08220448093	69
8	2262	190.37695135165	70
8	2271	191.70245436119	71
8	2278	191.84394604935	72
8	2287	193.04899909644	73
8	2294	193.41626821415	74
8	2298	194.01514033147	75
8	2311	195.96933626433	76
8	2315	196.30084720849	77
8	2332	198.02652772925	78
8	2350	199.98547410703	79
8	2483	203.38503123475	80
8	2497	204.28887076087	81
8	2528	206.14688366297	82
8	2539	206.84180910447	83
8	2543	206.90582733361	84
8	2567	209.23707043849	85
8	2581	210.0411762378	86
8	2595	211.2613609712	87
8	2603	213.59731068116	88
8	2638	218.47673713572	89
8	2648	219.20162508942	90
8	2684	221.3316571223	91
8	2688	221.48385199583	92
8	2702	222.44157338223	93
8	2713	224.15975954095	94
8	2723	225.71352973094	95
8	2734	226.19249941424	96
8	2752	227.70501806394	97
8	2783	229.21863928897	98
8	2819	232.64450611256	99
8	2823	232.69352785407	100
8	2829	232.76981798576	101
8	2842	234.50971383699	102
8	2855	237.56629352984	103
8	2886	240.25828334794	104
8	2919	242.41140023632	105
8	2925	242.5682789075	106
8	2945	243.42602212558	107
8	2959	244.25364807009	108
8	2975	245.07866390808	109
8	2999	248.3560196677	110
8	3003	248.61758129537	111
8	3013	249.46010148962	112
8	3020	250.73334494897	113
8	3117	251.17542491055	114
8	3135	252.74557286816	115
8	3143	253.53437693071	116
8	3147	253.55626716389	117
8	3160	254.72310753364	118
8	3172	255.3428732078	119
8	3178	255.79661697675	120
8	3203	258.04587488056	121
8	3225	259.78607139195	122
8	3229	259.87412010418	123
8	3233	259.93264876016	124
8	3285	266.41364439683	125
8	3307	268.21130041442	126
8	3317	268.81718376762	127
8	3323	269.24432137496	128
8	3335	270.4021521128	129
8	3370	273.24774609872	130
8	3390	276.85231980696	131
8	3406	280.77995142776	132
8	3429	282.96478611178	133
8	3442	284.42981548085	134
8	3453	286.8952519569	135
8	3472	288.31287811568	136
8	3484	289.88811944242	137
8	3493	291.92329770362	138
8	3512	293.55976464324	139
8	3526	295.19470266643	140
8	3633	301.78834821193	141
8	3655	306.6193755762	142
8	3669	308.78916546529	143
8	3678	310.37845202314	144
8	3693	315.26407822713	145
8	3703	316.14527854546	146
8	3728	322.71060882235	147
8	3738	326.55226053081	148
8	3752	328.14315739533	149
8	3779	339.36913251006	150
8	3794	344.51569179249	151
8	3809	346.22231506956	152
8	3817	347.38265472807	153
8	3829	350.55120004865	154
8	3927	352.13362585464	155
8	3940	353.36531822399	156
8	3945	353.96143302303	157
8	3980	362.70028745969	158
8	4012	368.33870417147	159
8	4019	368.65678174648	160
8	4034	373.75930164353	161
8	4046	377.50459094978	162
8	4055	379.06405314514	163
8	4064	380.15123417013	164
8	4205	402.10038874475	165
8	4215	403.8129929917	166
8	4230	407.84690940811	167
8	4246	410.55944658577	168
8	4250	410.62780873095	169
8	4266	412.8088598324	170
8	4284	415.76678637525	171
8	4295	417.33330523224	172
8	4299	418.1101435848	173
8	4309	418.89888818603	174
8	4314	420.13137982325	175
8	4331	422.30044927624	176
8	4336	422.69214474343	177
8	4345	423.65896498611	178
8	4356	427.79159979138	179
8	4389	439.41515159853	180
8	4400	442.36200809692	181
8	4416	444.55608576982	182
8	4429	445.43937301439	183
8	4442	447.84735162489	184
8	4548	453.21239885157	185
8	4574	462.86470275467	186
8	4597	467.85770818573	187
8	4615	476.17881325867	188
8	4630	479.47731313355	189
8	4639	481.18221973513	190
8	4656	483.50654152567	191
8	4660	483.59401773956	192
8	4687	492.10348376518	193
8	4698	496.24113077509	194
8	4707	497.91823027948	195
8	4828	503.81084149801	196
8	4833	503.96403013439	197
8	4854	507.77100886394	198
8	4877	514.48076836977	199
8	4889	516.63012456841	200
8	4894	517.04967509817	201
8	4912	518.50578783257	202
8	4919	520.02224148932	203
8	4939	523.20537184941	204
8	4951	525.57420196537	205
8	4960	526.6548177691	206
8	4978	532.71594068597	207
8	4991	534.8740630184	208
8	5003	537.11845120397	209
8	5015	539.45686758376	210
8	5027	541.20442907436	211
8	5031	541.53612392585	212
8	5046	545.2069041267	213
8	5057	547.54194032977	214
8	5190	551.21337041837	215
8	5217	565.55061884517	216
8	5222	566.27962912413	217
8	5243	575.46361018265	218
8	5254	576.56717699081	219
8	5260	577.41267758751	220
8	5275	579.54768959427	221
8	5281	579.66607446064	222
8	5426	602.83975347624	223
8	5439	603.87106530662	224
8	5454	608.46316584729	225
8	5464	610.05391926369	226
8	5494	616.37482769731	227
8	5504	617.70966231222	228
8	5525	621.02598245781	229
8	5539	622.7059315768	230
8	5600	637.51955097601	231
8	5623	641.61305733368	232
8	5629	642.44766538245	233
8	5645	646.44666310342	234
8	5660	649.31971620167	235
8	5664	649.36576791051	236
8	5799	657.13938088449	237
8	5813	658.02337684146	238
8	5821	658.8263561047	239
8	5826	659.13714002566	240
8	5834	660.05379438344	241
8	5853	662.90583641015	242
8	5862	666.25602199872	243
8	5872	668.60032955594	244
8	5890	670.84626653212	245
8	5901	673.37404339088	246
8	5962	685.39356574009	247
8	5971	687.24259591954	248
8	6133	701.15878116398	249
8	6155	706.65015744455	250
8	6164	707.60777029269	251
8	6179	711.33049509701	252
8	6354	738.51444921865	253
8	6368	740.43941789365	254
8	6405	748.54537937073	255
9	343	31.60427572614	180
9	2024	168.06359458191	180
9	2261	190.37695135165	180
9	2885	240.25828334794	180
9	4229	407.84690940811	180
9	5644	646.44666310342	180
9	5961	685.39356574009	180
9	6132	701.15878116398	180
9	6367	740.43941789365	180
10	343	31.60427572614	30.60427572614
10	2024	168.06359458191	167.06359458191
10	2261	190.37695135165	189.37695135165
10	2885	240.25828334794	239.25828334794
10	4229	407.84690940811	406.84690940811
10	5644	646.44666310342	645.44666310342
10	5961	685.39356574009	684.39356574009
10	6132	701.15878116398	700.15878116398
10	6367	740.43941789365	739.43941789365
11	343	31.60427572614	30.60427572614
12	348	32.10012418082	180
12	466	43.89270803872	180
12	788	68.23366369451	180
12	1341	113.78554189442	180
12	1600	136.87254743282	180
12	2293	193.41626821415	180
12	2602	213.59731068116	180
12	3142	253.53437693071	180
12	4335	422.69214474343	180
12	4415	444.55608576982	180
13	348	32.10012418082	31.10012418082
13	466	43.89270803872	42.89270803872
13	788	68.23366369451	67.23366369451
13	1341	113.78554189442	112.78554189442
13	1600	136.87254743282	135.87254743282
13	2293	193.41626821415	192.41626821415
13	2602	213.59731068116	212.59731068116
13	3142	253.53437693071	252.53437693071
13	4335	422.69214474343	421.69214474343
13	4415	444.55608576982	443.55608576982
14	348	32.10012418082	31.10012418082
15	357	33.14555962165	180
15	652	53.10583213288	180
15	1906	158.85317901674	180
15	2116	177.58360260574	180
15	2297	194.01514033147	180
15	2998	248.3560196677	180
15	4054	379.06405314514	180
15	4298	418.1101435848	180
15	4911	518.50578783257	180
15	5253	576.56717699081	180
15	5871	668.60032955594	180
16	357	33.14555962165	32.14555962165
16	652	53.10583213288	52.10583213288
16	1906	158.85317901674	157.85317901674
16	2116	177.58360260574	176.58360260574
16	2297	194.01514033147	193.01514033147
16	2998	248.3560196677	247.3560196677
16	4054	379.06405314514	378.06405314514
16	4298	418.1101435848	417.1101435848
16	4911	518.50578783257	517.50578783257
16	5253	576.56717699081	575.56717699081
16	5871	668.60032955594	667.60032955594
17	357	33.14555962165	32.14555962165
18	403	37.58836602037	180
18	691	56.71219950834	180
18	928	79.45794667177	180
18	1250	103.70309038497	180
18	1369	116.2958527863	180
18	1569	134.00694810496	180
18	1695	146.09184690345	180
18	1895	157.53058978416	180
18	2331	198.02652772925	180
18	3232	259.93264876016	180
18	3492	291.92329770362	180
19	403	37.58836602037	36.58836602037
19	691	56.71219950834	55.71219950834
19	928	79.45794667177	78.45794667177
19	1250	103.70309038497	102.70309038497
19	1369	116.2958527863	115.2958527863
19	1569	134.00694810496	133.00694810496
19	1695	146.09184690345	145.09184690345
19	1895	157.53058978416	156.53058978416
19	2331	198.02652772925	197.02652772925
19	3232	259.93264876016	258.93264876016
19	3492	291.92329770362	290.92329770362
20	403	37.58836602037	36.58836602037
21	470	44.1793557635	180
21	976	86.72896701903	180
21	1413	120.47799507217	180
21	1867	153.1885911705	180
21	2153	181.44819244919	180
21	2974	245.07866390808	180
21	3177	255.79661697675	180
21	3306	268.21130041442	180
21	4344	423.65896498611	180
21	4388	439.41515159853	180
21	5524	621.02598245781	180
21	5812	658.02337684146	180
22	470	44.1793557635	43.1793557635
22	976	86.72896701903	85.72896701903
22	1413	120.47799507217	119.47799507217
22	1867	153.1885911705	152.1885911705
22	2153	181.44819244919	180.44819244919
22	2974	245.07866390808	244.07866390808
22	3177	255.79661697675	254.79661697675
22	3306	268.21130041442	267.21130041442
22	4344	423.65896498611	422.65896498611
22	4388	439.41515159853	438.41515159853
22	5524	621.02598245781	620.02598245781
22	5812	658.02337684146	657.02337684146
23	470	44.1793557635	43.1793557635
24	481	45.35184878217	180
24	792	68.30918962428	180
24	2047	170.24284497661	180
24	2277	191.84394604935	180
24	3134	252.74557286816	180
24	3452	286.8952519569	180
24	5216	565.55061884517	180
25	481	45.35184878217	44.35184878217
25	792	68.30918962428	67.30918962428
25	2047	170.24284497661	169.24284497661
25	2277	191.84394604935	190.84394604935
25	3134	252.74557286816	251.74557286816
25	3452	286.8952519569	285.8952519569
25	5216	565.55061884517	564.55061884517
26	481	45.35184878217	44.35184878217
27	753	62.96654461397	180
27	932	79.7668796182	180
27	1088	96.44189481487	180
27	1421	120.96507793156	180
27	1521	131.10271793887	180
27	1747	149.1723372599	180
27	1996	166.17022310131	180
27	2164	181.98148878504	180
27	2310	195.96933626433	180
27	2647	219.20162508942	180
27	2822	232.69352785407	180
27	4294	417.33330523224	180
27	4638	481.18221973513	180
28	753	62.96654461397	61.96654461397
28	932	79.7668796182	78.7668796182
28	1088	96.44189481487	95.44189481487
28	1421	120.96507793156	119.96507793156
28	1521	131.10271793887	130.10271793887
28	1747	149.1723372599	148.1723372599
28	1996	166.17022310131	165.17022310131
28	2164	181.98148878504	180.98148878504
28	2310	195.96933626433	194.96933626433
28	2647	219.20162508942	218.20162508942
28	2822	232.69352785407	231.69352785407
28	4294	417.33330523224	416.33330523224
28	4638	481.18221973513	480.18221973513
29	753	62.96654461397	61.96654461397
30	775	65.78764709624	180
30	1885	156.18796638426	180
30	4686	492.10348376518	180
30	4959	526.6548177691	180
30	5503	617.70966231222	180
30	6404	748.54537937073	180
31	775	65.78764709624	64.78764709624
31	1885	156.18796638426	155.18796638426
31	4686	492.10348376518	491.10348376518
31	4959	526.6548177691	525.6548177691
31	5503	617.70966231222	616.70966231222
31	6404	748.54537937073	747.54537937073
32	775	65.78764709624	64.78764709624
33	941	80.32285953749	180
33	2003	166.6331904311	180
33	2349	199.98547410703	180
33	2683	221.3316571223	180
33	3146	253.55626716389	180
33	3428	282.96478611178	180
33	3654	306.6193755762	180
33	3816	347.38265472807	180
33	4018	368.65678174648	180
34	941	80.32285953749	79.32285953749
34	2003	166.6331904311	165.6331904311
34	2349	199.98547410703	198.98547410703
34	2683	221.3316571223	220.3316571223
34	3146	253.55626716389	252.55626716389
34	3428	282.96478611178	281.96478611178
34	3654	306.6193755762	305.6193755762
34	3816	347.38265472807	346.38265472807
34	4018	368.65678174648	367.65678174648
35	941	80.32285953749	79.32285953749
36	991	87.77704015005	180
36	1447	124.27454721279	180
36	2722	225.71352973094	180
36	3483	289.88811944242	180
36	3808	346.22231506956	180
36	3979	362.70028745969	180
36	4265	412.8088598324	180
36	4547	453.21239885157	180
36	4596	467.85770818573	180
36	4918	520.02224148932	180
37	991	87.77704015005	86.77704015005
37	1447	124.27454721279	123.27454721279
37	2722	225.71352973094	224.71352973094
37	3483	289.88811944242	288.88811944242
37	3808	346.22231506956	345.22231506956
37	3979	362.70028745969	361.70028745969
37	4265	412.8088598324	411.8088598324
37	4547	453.21239885157	452.21239885157
37	4596	467.85770818573	466.85770818573
37	4918	520.02224148932	519.02224148932
38	991	87.77704015005	86.77704015005
39	1052	92.95290196541	180
39	1348	114.42384719377	180
39	1557	132.54545718658	180
39	1678	144.69362612458	180
39	1975	164.48127394768	180
39	2215	185.31384595663	180
39	2580	210.0411762378	180
39	2751	227.70501806394	180
39	2924	242.5682789075	180
39	3202	258.04587488056	180
39	3369	273.24774609872	180
40	1052	92.95290196541	91.95290196541
40	1348	114.42384719377	113.42384719377
40	1557	132.54545718658	131.54545718658
40	1678	144.69362612458	143.69362612458
40	1975	164.48127394768	163.48127394768
40	2215	185.31384595663	184.31384595663
40	2580	210.0411762378	209.0411762378
40	2751	227.70501806394	226.70501806394
40	2924	242.5682789075	241.5682789075
40	3202	258.04587488056	257.04587488056
40	3369	273.24774609872	272.24774609872
41	1052	92.95290196541	91.95290196541
42	1113	99.4583067076	180
42	1365	115.94685734941	180
42	1951	162.0540446799	180
42	2133	179.39322240644	180
42	2637	218.47673713572	180
42	2828	232.76981798576	180
42	2958	244.25364807009	180
42	3224	259.78607139195	180
42	3525	295.19470266643	180
42	4655	483.50654152567	180
42	5014	539.45686758376	180
42	5189	551.21337041837	180
42	5274	579.54768959427	180
43	1113	99.4583067076	98.4583067076
43	1365	115.94685734941	114.94685734941
43	1951	162.0540446799	161.0540446799
43	2133	179.39322240644	178.39322240644
43	2637	218.47673713572	217.47673713572
43	2828	232.76981798576	231.76981798576
43	2958	244.25364807009	243.25364807009
43	3224	259.78607139195	258.78607139195
43	3525	295.19470266643	294.19470266643
43	4655	483.50654152567	482.50654152567
43	5014	539.45686758376	538.45686758376
43	5189	551.21337041837	550.21337041837
43	5274	579.54768959427	578.54768959427
44	1113	99.4583067076	98.4583067076
45	1225	101.08339313049	180
45	2036	169.04082332719	180
45	2234	187.08220448093	180
45	2482	203.38503123475	180
45	2687	221.48385199583	180
45	2841	234.50971383699	180
45	3171	255.3428732078	180
45	4045	377.50459094978	180
45	4399	442.36200809692	180
45	4876	514.48076836977	180
45	4977	532.71594068597	180
45	5425	602.83975347624	180
46	1225	101.08339313049	100.08339313049
46	2036	169.04082332719	168.04082332719
46	2234	187.08220448093	186.08220448093
46	2482	203.38503123475	202.38503123475
46	2687	221.48385199583	220.48385199583
46	2841	234.50971383699	233.50971383699
46	3171	255.3428732078	254.3428732078
46	4045	377.50459094978	376.50459094978
46	4399	442.36200809692	441.36200809692
46	4876	514.48076836977	513.48076836977
46	4977	532.71594068597	531.71594068597
46	5425	602.83975347624	601.83975347624
47	1225	101.08339313049	100.08339313049
48	1311	109.05167436337	180
48	1742	148.5322867566	180
48	2496	204.28887076087	180
48	3116	251.17542491055	180
48	3737	326.55226053081	180
48	4283	415.76678637525	180
48	5026	541.20442907436	180
49	1311	109.05167436337	108.05167436337
49	1742	148.5322867566	147.5322867566
49	2496	204.28887076087	203.28887076087
49	3116	251.17542491055	250.17542491055
49	3737	326.55226053081	325.55226053081
49	4283	415.76678637525	414.76678637525
49	5026	541.20442907436	540.20442907436
50	1311	109.05167436337	108.05167436337
51	1463	125.27123397908	180
51	1730	148.0173822643	180
51	2172	183.02000034477	180
51	2542	206.90582733361	180
51	2733	226.19249941424	180
51	3405	280.77995142776	180
51	4063	380.15123417013	180
51	4308	418.89888818603	180
51	4888	516.63012456841	180
51	5056	547.54194032977	180
52	1463	125.27123397908	124.27123397908
52	1730	148.0173822643	147.0173822643
52	2172	183.02000034477	182.02000034477
52	2542	206.90582733361	205.90582733361
52	2733	226.19249941424	225.19249941424
52	3405	280.77995142776	279.77995142776
52	4063	380.15123417013	379.15123417013
52	4308	418.89888818603	417.89888818603
52	4888	516.63012456841	515.63012456841
52	5056	547.54194032977	546.54194032977
53	1463	125.27123397908	124.27123397908
54	1481	128.11818388116	180
54	2701	222.44157338223	180
54	3159	254.72310753364	180
54	3677	310.37845202314	180
54	4011	368.33870417147	180
54	4355	427.79159979138	180
54	4853	507.77100886394	180
54	5820	658.8263561047	180
55	1481	128.11818388116	127.11818388116
55	2701	222.44157338223	221.44157338223
55	3159	254.72310753364	253.72310753364
55	3677	310.37845202314	309.37845202314
55	4011	368.33870417147	367.33870417147
55	4355	427.79159979138	426.79159979138
55	4853	507.77100886394	506.77100886394
55	5820	658.8263561047	657.8263561047
56	1481	128.11818388116	127.11818388116
57	2126	178.43845896715	180
57	2314	196.30084720849	180
57	2918	242.41140023632	180
57	3284	266.41364439683	180
57	3668	308.78916546529	180
57	3793	344.51569179249	180
57	4706	497.91823027948	180
58	2126	178.43845896715	177.43845896715
58	2314	196.30084720849	195.30084720849
58	2918	242.41140023632	241.41140023632
58	3284	266.41364439683	265.41364439683
58	3668	308.78916546529	307.78916546529
58	3793	344.51569179249	343.51569179249
58	4706	497.91823027948	496.91823027948
59	2126	178.43845896715	177.43845896715
60	2270	191.70245436119	180
60	3002	248.61758129537	180
60	3228	259.87412010418	180
60	3944	353.96143302303	180
60	5852	662.90583641015	180
61	2270	191.70245436119	190.70245436119
61	3002	248.61758129537	247.61758129537
61	3228	259.87412010418	258.87412010418
61	3944	353.96143302303	352.96143302303
61	5852	662.90583641015	661.90583641015
62	2270	191.70245436119	190.70245436119
63	2527	206.14688366297	180
63	2944	243.42602212558	180
63	4033	373.75930164353	180
63	4245	410.55944658577	180
63	4938	523.20537184941	180
63	5453	608.46316584729	180
63	5622	641.61305733368	180
64	2527	206.14688366297	205.14688366297
64	2944	243.42602212558	242.42602212558
64	4033	373.75930164353	372.75930164353
64	4245	410.55944658577	409.55944658577
64	4938	523.20537184941	522.20537184941
64	5453	608.46316584729	607.46316584729
64	5622	641.61305733368	640.61305733368
65	2527	206.14688366297	205.14688366297
66	2538	206.84180910447	180
66	3727	322.71060882235	180
66	4214	403.8129929917	180
66	4313	420.13137982325	180
66	4827	503.81084149801	180
66	5259	577.41267758751	180
66	5900	673.37404339088	180
66	6178	711.33049509701	180
67	2538	206.84180910447	205.84180910447
67	3727	322.71060882235	321.71060882235
67	4214	403.8129929917	402.8129929917
67	4313	420.13137982325	419.13137982325
67	4827	503.81084149801	502.81084149801
67	5259	577.41267758751	576.41267758751
67	5900	673.37404339088	672.37404339088
67	6178	711.33049509701	710.33049509701
68	2538	206.84180910447	205.84180910447
69	2566	209.23707043849	180
69	3322	269.24432137496	180
69	3511	293.55976464324	180
69	5002	537.11845120397	180
70	2566	209.23707043849	208.23707043849
70	3322	269.24432137496	268.24432137496
70	3511	293.55976464324	292.55976464324
70	5002	537.11845120397	536.11845120397
71	2566	209.23707043849	208.23707043849
72	2712	224.15975954095	180
72	2854	237.56629352984	180
72	3389	276.85231980696	180
72	3939	353.36531822399	180
72	4659	483.59401773956	180
72	4990	534.8740630184	180
72	5663	649.36576791051	180
72	5861	666.25602199872	180
72	5970	687.24259591954	180
72	6163	707.60777029269	180
73	2712	224.15975954095	223.15975954095
73	2854	237.56629352984	236.56629352984
73	3389	276.85231980696	275.85231980696
73	3939	353.36531822399	352.36531822399
73	4659	483.59401773956	482.59401773956
73	4990	534.8740630184	533.8740630184
73	5663	649.36576791051	648.36576791051
73	5861	666.25602199872	665.25602199872
73	5970	687.24259591954	686.24259591954
73	6163	707.60777029269	706.60777029269
74	2712	224.15975954095	223.15975954095
75	2818	232.64450611256	180
75	3019	250.73334494897	180
75	3334	270.4021521128	180
75	3471	288.31287811568	180
75	3828	350.55120004865	180
76	2818	232.64450611256	231.64450611256
76	3019	250.73334494897	249.73334494897
76	3334	270.4021521128	269.4021521128
76	3471	288.31287811568	287.31287811568
76	3828	350.55120004865	349.55120004865
77	2818	232.64450611256	231.64450611256
78	3441	284.42981548085	180
78	3702	316.14527854546	180
78	4204	402.10038874475	180
78	5538	622.7059315768	180
78	5798	657.13938088449	180
79	3441	284.42981548085	283.42981548085
79	3702	316.14527854546	315.14527854546
79	4204	402.10038874475	401.10038874475
79	5538	622.7059315768	621.7059315768
79	5798	657.13938088449	656.13938088449
80	3441	284.42981548085	283.42981548085
81	3632	301.78834821193	180
81	3692	315.26407822713	180
81	3751	328.14315739533	180
81	4441	447.84735162489	180
81	5030	541.53612392585	180
81	5463	610.05391926369	180
81	5659	649.31971620167	180
81	5889	670.84626653212	180
82	3632	301.78834821193	300.78834821193
82	3692	315.26407822713	314.26407822713
82	3751	328.14315739533	327.14315739533
82	4441	447.84735162489	446.84735162489
82	5030	541.53612392585	540.53612392585
82	5463	610.05391926369	609.05391926369
82	5659	649.31971620167	648.31971620167
82	5889	670.84626653212	669.84626653212
83	3632	301.78834821193	300.78834821193
84	3778	339.36913251006	180
84	3926	352.13362585464	180
84	4330	422.30044927624	180
84	4428	445.43937301439	180
84	4629	479.47731313355	180
84	4832	503.96403013439	180
84	4950	525.57420196537	180
84	5045	545.2069041267	180
84	5242	575.46361018265	180
84	5493	616.37482769731	180
84	5599	637.51955097601	180
85	3778	339.36913251006	338.36913251006
85	3926	352.13362585464	351.13362585464
85	4330	422.30044927624	421.30044927624
85	4428	445.43937301439	444.43937301439
85	4629	479.47731313355	478.47731313355
85	4832	503.96403013439	502.96403013439
85	4950	525.57420196537	524.57420196537
85	5045	545.2069041267	544.2069041267
85	5242	575.46361018265	574.46361018265
85	5493	616.37482769731	615.37482769731
85	5599	637.51955097601	636.51955097601
86	3778	339.36913251006	338.36913251006
87	4249	410.62780873095	180
87	5438	603.87106530662	180
87	5833	660.05379438344	180
87	6154	706.65015744455	180
87	6353	738.51444921865	180
88	4249	410.62780873095	409.62780873095
88	5438	603.87106530662	602.87106530662
88	5833	660.05379438344	659.05379438344
88	6154	706.65015744455	705.65015744455
88	6353	738.51444921865	737.51444921865
89	4249	410.62780873095	409.62780873095
90	4573	462.86470275467	180
90	4614	476.17881325867	180
90	4697	496.24113077509	180
90	4893	517.04967509817	180
90	5221	566.27962912413	180
90	5280	579.66607446064	180
90	5628	642.44766538245	180
90	5825	659.13714002566	180
91	4573	462.86470275467	461.86470275467
91	4614	476.17881325867	475.17881325867
91	4697	496.24113077509	495.24113077509
91	4893	517.04967509817	516.04967509817
91	5221	566.27962912413	565.27962912413
91	5280	579.66607446064	578.66607446064
91	5628	642.44766538245	641.44766538245
91	5825	659.13714002566	658.13714002566
92	4573	462.86470275467	461.86470275467

