file 74493 1780691879                                           
version 3
run General-1-20260605-22:37:56-1048198
attr configname General
attr datetime 20260605-22:37:56
attr datetimef 20260605-223756
attr experiment General
attr inifile Test_MLModel_1.ini
attr iterationvars $0=84242
attr iterationvarsd 84242
attr iterationvarsf 84242-
attr measurement $0=84242
attr network Florasat.Test_Individual.Florasat_Individual_Sats
attr processid 1048198
attr repetition 1
attr replication #1
attr resultdir results
attr runnumber 1
attr seedset 1
config *.satellite[0].NoradModule.raan 185
config *.stats_altitude 670
config *.stats_raan 185
config image-path ../../images:../../../../samples/inet4.5_2/images
config network Florasat.Test_Individual.Florasat_Individual_Sats
config rng-class cMersenneTwister
config *.**.result-recording-modes -
config **.result-recording-modes -
config **.statistic-recording true
config **.scalar-recording true
config **.vector-recording true
config **.vector-record-eventnumbers true
config repeat 10
config seed-0-mt 84242
config sim-time-limit 749s
config simtime-resolution -11
config **.stats_altitude 670
config **.stats_raan 185
config *.radioMedium.backgroundNoise.power -110dBm
config *.radioMedium.mediumLimitCache.centerFrequency 868MHz
config *.radioMedium.mediumLimitCache.maxTransmissionDuration 4s
config *.radioMedium.mediumLimitCache.minInterferenceTime 0s
config **.numSatellites 1
config *.satellite[*].mobilityType "\"Sat_Mob_SatelliteMobility_Standalone\""
config *.satellite[*].noradModuleType "\"Sat_Mob_NoradA\""
config **.satellite[*].**.initFromDisplayString false
config *.satellite[*].mobility.faceForward true
config *.satellite[*].mobility.updateInterval 20s
config *.satellite[*].NoradModule.satName "\"FLoRaSat\""
config *.satellite[*].NoradModule.satIndex -1
config *.satellite[*].NoradModule.baseYear 20
config *.satellite[*].NoradModule.baseDay 1.5
config *.satellite[*].NoradModule.planes 1
config *.satellite[*].NoradModule.satPerPlane 1
config *.satellite[*].NoradModule.eccentricity 0.000001
config *.satellite[*].NoradModule.inclination 98
config *.satellite[*].NoradModule.altitude 670
config *.satellite[0].NoradModule.raan 185
config *.satellite[0].NoradModule.meanAnomaly 195
config *.satellite[*].phyDSL.radio.receiver.enableCollisionOverlap true
config *.satellite[*].phyDSL.radio.receiver.minCollisionOverlap 0s
config *.satellite[*].phyDSL.radio.antenna.typename ConstantGainAntenna
config *.satellite[*].phyDSL.radio.antenna.mobilityModule "\"^.^.^.mobility\""
config *.satellite[*].phyISL.radio.antenna.mobilityModule "\"^.^.^.mobility\""
config *.satellite[*].phyGSL.radio.antenna.mobilityModule "\"^.^.^.mobility\""
config *.satellite[*].phyDSL.radio.antenna.gain 12dB
config *.satellite[*].net.routingType "\"Null_Routing\""
config *.terminal[*].net.routingType "\"Ter_Null_Routing\""
config *.**.numGroundLinks 40
config *.satellite[*].**.interfaceTableModule "\"\""
config **.radioMedium.typename LoRaMedium
config **.radioMedium.analogModel.typename LoRaAnalogModel
config **.intraPlaneIslDisabled false
config **.interPlaneIslDisabled false
config **.numTerminals 30
config *.terminal[*].phy.radio.antenna.mobilityModule "\"^.^.^.mob\""
config *.terminal[*].dlk.mac.interfaceTableModule "\"\""
config *.terminal[*].dlk.energySourceModule "\"\""
config *.terminal[*].dlk.mac.LoRaTP "intuniform(12, 14)"
config *.terminal[*].dlk.mac.LoRaSF "intuniform(10, 12)"
config *.terminal[*].dlk.mac.useMLBox true
config *.terminal[*].dlk.mac.mlBox.modelPath "\"/home/ylnner/Documents/omnet++/omnetpp-6.3.0/projects/florasat_v4_ult_routing/simulations/Test_Individual/mlmodels/bilstm_scripted.pt\""
config **.numberOfPacketsToSend 0
config **.timeToFirstPacket 1s
config **.timeToNextPacket 50s
config *.terminal[0].mob.radius 0.0
config *.terminal[0].mob.centerLatitude 54.978
config *.terminal[0].mob.centerLongitude -1.617
config *.terminal[1].mob.radius 0.0
config *.terminal[1].mob.centerLatitude 52.630
config *.terminal[1].mob.centerLongitude -1.139
config *.terminal[2].mob.radius 0.0
config *.terminal[2].mob.centerLatitude 52.612
config *.terminal[2].mob.centerLongitude -6.295
config *.terminal[3].mob.radius 0.0
config *.terminal[3].mob.centerLatitude 47.243
config *.terminal[3].mob.centerLongitude 6.024
config *.terminal[4].mob.radius 0.0
config *.terminal[4].mob.centerLatitude 43.610
config *.terminal[4].mob.centerLongitude 3.876
config *.terminal[5].mob.radius 0.0
config *.terminal[5].mob.centerLatitude 49.443
config *.terminal[5].mob.centerLongitude 1.099
config *.terminal[6].mob.radius 0.0
config *.terminal[6].mob.centerLatitude 37.992
config *.terminal[6].mob.centerLongitude -1.130
config *.terminal[7].mob.radius 0.0
config *.terminal[7].mob.centerLatitude 40.965
config *.terminal[7].mob.centerLongitude -5.664
config *.terminal[8].mob.radius 0.0
config *.terminal[8].mob.centerLatitude 40.657
config *.terminal[8].mob.centerLongitude -7.914
config *.terminal[9].mob.radius 0.0
config *.terminal[9].mob.centerLatitude 51.340
config *.terminal[9].mob.centerLongitude 12.373
config *.terminal[10].mob.radius 0.0
config *.terminal[10].mob.centerLatitude 51.455
config *.terminal[10].mob.centerLongitude 7.011
config *.terminal[11].mob.radius 0.0
config *.terminal[11].mob.centerLatitude 49.452
config *.terminal[11].mob.centerLongitude 11.076
config *.terminal[12].mob.radius 0.0
config *.terminal[12].mob.centerLatitude 43.769
config *.terminal[12].mob.centerLongitude 11.255
config *.terminal[13].mob.radius 0.0
config *.terminal[13].mob.centerLatitude 41.117
config *.terminal[13].mob.centerLongitude 16.871
config *.terminal[14].mob.radius 0.0
config *.terminal[14].mob.centerLatitude 52.132
config *.terminal[14].mob.centerLongitude 5.291
config *.terminal[15].mob.radius 0.0
config *.terminal[15].mob.centerLatitude 50.411
config *.terminal[15].mob.centerLongitude 4.444
config *.terminal[16].mob.radius 0.0
config *.terminal[16].mob.centerLatitude 47.559
config *.terminal[16].mob.centerLongitude 7.588
config *.terminal[17].mob.radius 0.0
config *.terminal[17].mob.centerLatitude 55.403
config *.terminal[17].mob.centerLongitude 10.402
config *.terminal[18].mob.radius 0.0
config *.terminal[18].mob.centerLatitude 59.858
config *.terminal[18].mob.centerLongitude 17.638
config *.terminal[19].mob.radius 0.0
config *.terminal[19].mob.centerLatitude 60.451
config *.terminal[19].mob.centerLongitude 22.266
config *.terminal[20].mob.radius 0.0
config *.terminal[20].mob.centerLatitude 56.325
config *.terminal[20].mob.centerLongitude 22.349
config *.terminal[21].mob.radius 0.0
config *.terminal[21].mob.centerLatitude 49.883
config *.terminal[21].mob.centerLongitude 18.568
config *.terminal[22].mob.radius 0.0
config *.terminal[22].mob.centerLatitude 47.531
config *.terminal[22].mob.centerLongitude 21.627
config *.terminal[23].mob.radius 0.0
config *.terminal[23].mob.centerLatitude 44.179
config *.terminal[23].mob.centerLongitude 28.649
config *.terminal[24].mob.radius 0.0
config *.terminal[24].mob.centerLatitude 45.327
config *.terminal[24].mob.centerLongitude 14.442
config *.terminal[25].mob.radius 0.0
config *.terminal[25].mob.centerLatitude 40.694
config *.terminal[25].mob.centerLongitude 30.400
config *.terminal[26].mob.radius 0.0
config *.terminal[26].mob.centerLatitude 37.066
config *.terminal[26].mob.centerLongitude 37.383
config *.terminal[27].mob.radius 0.0
config *.terminal[27].mob.centerLatitude 64.836
config *.terminal[27].mob.centerLongitude -23.708
config *.terminal[28].mob.radius 0.0
config *.terminal[28].mob.centerLatitude 28.099
config *.terminal[28].mob.centerLongitude -17.113
config *.terminal[29].mob.radius 0.0
config *.terminal[29].mob.centerLatitude 34.921
config *.terminal[29].mob.centerLongitude 33.623
config **.numStations 3
config **.numStations 3
config *.station[0].mobility.latitude 55.752
config *.station[0].mobility.longitude 37.616
config *.station[0].cityName "\"Moscow\""
config *.station[0].groundStationId 7
config *.station[0].routerAddr "\"10.0.0.29\""
config *.station[0].serving "\"10.0.0.29\""
config *.station[1].mobility.latitude 28.652
config *.station[1].mobility.longitude 77.231
config *.station[1].cityName "\"Delhi\""
config *.station[1].groundStationId 11
config *.station[1].routerAddr "\"10.0.0.45\""
config *.station[1].serving "\"10.0.0.45\""
config *.station[2].mobility.latitude 25.35
config *.station[2].mobility.longitude 51.24
config *.station[2].cityName "\"Katar\""
config *.station[2].groundStationId 19
config *.station[2].routerAddr "\"10.0.0.77\""
config *.station[2].serving "\"10.0.0.77\""
config *.visualizer.canvasVisualizer.mediumVisualizer.typename ""
config *.visualizer.*.radioVisualizer.displayAntennaLobes true
config *.visualizer.*.dataLinkVisualizer.displayLinks true
config *.visualizer.*.mobilityVisualizer.displayMovementTrails true
config *.visualizer.*.mobilityVisualizer.movementTrailLineWidth 1
config *.visualizer.*.mobilityVisualizer.trailLength 3000
config **.ttxStart_max 30s
config **.ttxIdle_min 10s
config **.ttxIdle_max 25s
config **.Ntw 2
config **.Ntx 45
config **.ttwDuration 550s

vector 0 Florasat_Individual_Sats.satellite[0].dlkDSL.mac "Satellite Position when Repetition Received" ETV
vector 1 Florasat_Individual_Sats.satellite[0].dlkDSL.mac "Repetition Position for Node 238 at Satellite" ETV
vector 2 Florasat_Individual_Sats.satellite[0].dlkDSL.mac "All Nodes Repetition Generation Delay at Satellite" ETV
vector 3 Florasat_Individual_Sats.satellite[0].dlkDSL.mac "Repetition Generation Delay for Node 238 at Satellite" ETV
vector 4 Florasat_Individual_Sats.satellite[0].dlkDSL.mac "All Nodes Message Generation Delay at Satellite" ETV
vector 5 Florasat_Individual_Sats.satellite[0].dlkDSL.mac "Message Generation Delay for Node 238 at Satellite" ETV
vector 6 Florasat_Individual_Sats.satellite[0].net.packetHandler "packets received" ETV
vector 7 Florasat_Individual_Sats.satellite[0].net.packetHandler "dropped unroutable" ETV
vector 8 Florasat_Individual_Sats.satellite[0].net.packetHandler "packets dropped" ETV
vector 9 Florasat_Individual_Sats.satellite[0].dlkDSL.mac "Repetition Position for Node 358 at Satellite" ETV
vector 10 Florasat_Individual_Sats.satellite[0].dlkDSL.mac "Repetition Generation Delay for Node 358 at Satellite" ETV
vector 11 Florasat_Individual_Sats.satellite[0].dlkDSL.mac "Message Generation Delay for Node 358 at Satellite" ETV
vector 12 Florasat_Individual_Sats.satellite[0].dlkDSL.mac "Repetition Position for Node 463 at Satellite" ETV
vector 13 Florasat_Individual_Sats.satellite[0].dlkDSL.mac "Repetition Generation Delay for Node 463 at Satellite" ETV
vector 14 Florasat_Individual_Sats.satellite[0].dlkDSL.mac "Message Generation Delay for Node 463 at Satellite" ETV
vector 15 Florasat_Individual_Sats.satellite[0].dlkDSL.mac "Repetition Position for Node 268 at Satellite" ETV
vector 16 Florasat_Individual_Sats.satellite[0].dlkDSL.mac "Repetition Generation Delay for Node 268 at Satellite" ETV
vector 17 Florasat_Individual_Sats.satellite[0].dlkDSL.mac "Message Generation Delay for Node 268 at Satellite" ETV
vector 18 Florasat_Individual_Sats.satellite[0].dlkDSL.mac "Repetition Position for Node 343 at Satellite" ETV
vector 19 Florasat_Individual_Sats.satellite[0].dlkDSL.mac "Repetition Generation Delay for Node 343 at Satellite" ETV
vector 20 Florasat_Individual_Sats.satellite[0].dlkDSL.mac "Message Generation Delay for Node 343 at Satellite" ETV
vector 21 Florasat_Individual_Sats.satellite[0].dlkDSL.mac "Repetition Position for Node 328 at Satellite" ETV
vector 22 Florasat_Individual_Sats.satellite[0].dlkDSL.mac "Repetition Generation Delay for Node 328 at Satellite" ETV
vector 23 Florasat_Individual_Sats.satellite[0].dlkDSL.mac "Message Generation Delay for Node 328 at Satellite" ETV
vector 24 Florasat_Individual_Sats.satellite[0].dlkDSL.mac "Repetition Position for Node 73 at Satellite" ETV
vector 25 Florasat_Individual_Sats.satellite[0].dlkDSL.mac "Repetition Generation Delay for Node 73 at Satellite" ETV
vector 26 Florasat_Individual_Sats.satellite[0].dlkDSL.mac "Message Generation Delay for Node 73 at Satellite" ETV
vector 27 Florasat_Individual_Sats.satellite[0].dlkDSL.mac "Repetition Position for Node 193 at Satellite" ETV
vector 28 Florasat_Individual_Sats.satellite[0].dlkDSL.mac "Repetition Generation Delay for Node 193 at Satellite" ETV
vector 29 Florasat_Individual_Sats.satellite[0].dlkDSL.mac "Message Generation Delay for Node 193 at Satellite" ETV
vector 30 Florasat_Individual_Sats.satellite[0].dlkDSL.mac "Repetition Position for Node 58 at Satellite" ETV
vector 31 Florasat_Individual_Sats.satellite[0].dlkDSL.mac "Repetition Generation Delay for Node 58 at Satellite" ETV
vector 32 Florasat_Individual_Sats.satellite[0].dlkDSL.mac "Message Generation Delay for Node 58 at Satellite" ETV
vector 33 Florasat_Individual_Sats.satellite[0].dlkDSL.mac "Repetition Position for Node 313 at Satellite" ETV
vector 34 Florasat_Individual_Sats.satellite[0].dlkDSL.mac "Repetition Generation Delay for Node 313 at Satellite" ETV
vector 35 Florasat_Individual_Sats.satellite[0].dlkDSL.mac "Message Generation Delay for Node 313 at Satellite" ETV
vector 36 Florasat_Individual_Sats.satellite[0].dlkDSL.mac "Repetition Position for Node 298 at Satellite" ETV
vector 37 Florasat_Individual_Sats.satellite[0].dlkDSL.mac "Repetition Generation Delay for Node 298 at Satellite" ETV
vector 38 Florasat_Individual_Sats.satellite[0].dlkDSL.mac "Message Generation Delay for Node 298 at Satellite" ETV
vector 39 Florasat_Individual_Sats.satellite[0].dlkDSL.mac "Repetition Position for Node 223 at Satellite" ETV
vector 40 Florasat_Individual_Sats.satellite[0].dlkDSL.mac "Repetition Generation Delay for Node 223 at Satellite" ETV
vector 41 Florasat_Individual_Sats.satellite[0].dlkDSL.mac "Message Generation Delay for Node 223 at Satellite" ETV
vector 42 Florasat_Individual_Sats.satellite[0].dlkDSL.mac "Repetition Position for Node 118 at Satellite" ETV
vector 43 Florasat_Individual_Sats.satellite[0].dlkDSL.mac "Repetition Generation Delay for Node 118 at Satellite" ETV
vector 44 Florasat_Individual_Sats.satellite[0].dlkDSL.mac "Message Generation Delay for Node 118 at Satellite" ETV
vector 45 Florasat_Individual_Sats.satellite[0].dlkDSL.mac "Repetition Position for Node 133 at Satellite" ETV
vector 46 Florasat_Individual_Sats.satellite[0].dlkDSL.mac "Repetition Generation Delay for Node 133 at Satellite" ETV
vector 47 Florasat_Individual_Sats.satellite[0].dlkDSL.mac "Message Generation Delay for Node 133 at Satellite" ETV
vector 48 Florasat_Individual_Sats.satellite[0].dlkDSL.mac "Repetition Position for Node 403 at Satellite" ETV
vector 49 Florasat_Individual_Sats.satellite[0].dlkDSL.mac "Repetition Generation Delay for Node 403 at Satellite" ETV
vector 50 Florasat_Individual_Sats.satellite[0].dlkDSL.mac "Message Generation Delay for Node 403 at Satellite" ETV
vector 51 Florasat_Individual_Sats.satellite[0].dlkDSL.mac "Repetition Position for Node 103 at Satellite" ETV
vector 52 Florasat_Individual_Sats.satellite[0].dlkDSL.mac "Repetition Generation Delay for Node 103 at Satellite" ETV
vector 53 Florasat_Individual_Sats.satellite[0].dlkDSL.mac "Message Generation Delay for Node 103 at Satellite" ETV
vector 54 Florasat_Individual_Sats.satellite[0].dlkDSL.mac "Repetition Position for Node 373 at Satellite" ETV
vector 55 Florasat_Individual_Sats.satellite[0].dlkDSL.mac "Repetition Generation Delay for Node 373 at Satellite" ETV
vector 56 Florasat_Individual_Sats.satellite[0].dlkDSL.mac "Message Generation Delay for Node 373 at Satellite" ETV
vector 57 Florasat_Individual_Sats.satellite[0].dlkDSL.mac "Repetition Position for Node 388 at Satellite" ETV
vector 58 Florasat_Individual_Sats.satellite[0].dlkDSL.mac "Repetition Generation Delay for Node 388 at Satellite" ETV
vector 59 Florasat_Individual_Sats.satellite[0].dlkDSL.mac "Message Generation Delay for Node 388 at Satellite" ETV
vector 60 Florasat_Individual_Sats.satellite[0].dlkDSL.mac "Repetition Position for Node 88 at Satellite" ETV
vector 61 Florasat_Individual_Sats.satellite[0].dlkDSL.mac "Repetition Generation Delay for Node 88 at Satellite" ETV
vector 62 Florasat_Individual_Sats.satellite[0].dlkDSL.mac "Message Generation Delay for Node 88 at Satellite" ETV
vector 63 Florasat_Individual_Sats.satellite[0].dlkDSL.mac "Repetition Position for Node 283 at Satellite" ETV
vector 64 Florasat_Individual_Sats.satellite[0].dlkDSL.mac "Repetition Generation Delay for Node 283 at Satellite" ETV
vector 65 Florasat_Individual_Sats.satellite[0].dlkDSL.mac "Message Generation Delay for Node 283 at Satellite" ETV
vector 66 Florasat_Individual_Sats.satellite[0].dlkDSL.mac "Repetition Position for Node 418 at Satellite" ETV
vector 67 Florasat_Individual_Sats.satellite[0].dlkDSL.mac "Repetition Generation Delay for Node 418 at Satellite" ETV
vector 68 Florasat_Individual_Sats.satellite[0].dlkDSL.mac "Message Generation Delay for Node 418 at Satellite" ETV
vector 69 Florasat_Individual_Sats.satellite[0].dlkDSL.mac "Repetition Position for Node 208 at Satellite" ETV
vector 70 Florasat_Individual_Sats.satellite[0].dlkDSL.mac "Repetition Generation Delay for Node 208 at Satellite" ETV
vector 71 Florasat_Individual_Sats.satellite[0].dlkDSL.mac "Message Generation Delay for Node 208 at Satellite" ETV
vector 72 Florasat_Individual_Sats.satellite[0].dlkDSL.mac "Repetition Position for Node 253 at Satellite" ETV
vector 73 Florasat_Individual_Sats.satellite[0].dlkDSL.mac "Repetition Generation Delay for Node 253 at Satellite" ETV
vector 74 Florasat_Individual_Sats.satellite[0].dlkDSL.mac "Message Generation Delay for Node 253 at Satellite" ETV
vector 75 Florasat_Individual_Sats.satellite[0].dlkDSL.mac "Repetition Position for Node 163 at Satellite" ETV
vector 76 Florasat_Individual_Sats.satellite[0].dlkDSL.mac "Repetition Generation Delay for Node 163 at Satellite" ETV
vector 77 Florasat_Individual_Sats.satellite[0].dlkDSL.mac "Message Generation Delay for Node 163 at Satellite" ETV
vector 78 Florasat_Individual_Sats.satellite[0].dlkDSL.mac "Repetition Position for Node 433 at Satellite" ETV
vector 79 Florasat_Individual_Sats.satellite[0].dlkDSL.mac "Repetition Generation Delay for Node 433 at Satellite" ETV
vector 80 Florasat_Individual_Sats.satellite[0].dlkDSL.mac "Message Generation Delay for Node 433 at Satellite" ETV
vector 81 Florasat_Individual_Sats.satellite[0].dlkDSL.mac "Repetition Position for Node 148 at Satellite" ETV
vector 82 Florasat_Individual_Sats.satellite[0].dlkDSL.mac "Repetition Generation Delay for Node 148 at Satellite" ETV
vector 83 Florasat_Individual_Sats.satellite[0].dlkDSL.mac "Message Generation Delay for Node 148 at Satellite" ETV
vector 84 Florasat_Individual_Sats.satellite[0].dlkDSL.mac "Repetition Position for Node 493 at Satellite" ETV
vector 85 Florasat_Individual_Sats.satellite[0].dlkDSL.mac "Repetition Generation Delay for Node 493 at Satellite" ETV
vector 86 Florasat_Individual_Sats.satellite[0].dlkDSL.mac "Message Generation Delay for Node 493 at Satellite" ETV
vector 87 Florasat_Individual_Sats.satellite[0].dlkDSL.mac "Repetition Position for Node 178 at Satellite" ETV
vector 88 Florasat_Individual_Sats.satellite[0].dlkDSL.mac "Repetition Generation Delay for Node 178 at Satellite" ETV
vector 89 Florasat_Individual_Sats.satellite[0].dlkDSL.mac "Message Generation Delay for Node 178 at Satellite" ETV
0	19321 6709 142 6297 5.62590601601 736.99959348482 251 180 180 45180 8132400
1	26030 213 142 5261 5.62590601601 594.02471904623 8 180 180 1440 259200
2	26243 9670 142 6297 5.62590601601 736.99959348482 251 4.62590601601 735.99959348482 78997.859544712 34031828.88773
3	35913 307 142 5261 5.62590601601 594.02471904623 8 4.62590601601 593.02471904623 2933.6736161913 1408116.1925548
4	36220 1055 142 4362 5.62590601601 443.84935932993 28 4.62590601601 442.84935932993 3679.2657849723 750241.5459191
5	37275 34 142 142 5.62590601601 5.62590601601 1 4.62590601601 4.62590601601 4.62590601601 21.399006468958
6	37309 6601 143 6298 5.62590601601 736.99959348482 251 1 251 31626 5302626
7	43910 6601 143 6298 5.62590601601 736.99959348482 251 1 251 31626 5302626
8	50511 6601 143 6298 5.62590601601 736.99959348482 251 1 251 31626 5302626
9	57112 341 239 4617 21.74690295936 494.7466814215 13 180 180 2340 421200
10	57453 504 239 4617 21.74690295936 494.7466814215 13 20.74690295936 493.7466814215 2116.8466314904 518793.42652845
11	57957 37 239 239 21.74690295936 21.74690295936 1 20.74690295936 20.74690295936 20.74690295936 430.4339824051
12	57994 272 269 3684 24.69192750732 304.76004035543 10 180 180 1800 324000
13	58266 386 269 3684 24.69192750732 304.76004035543 10 23.69192750732 303.76004035543 1626.1772009712 341380.68687262
14	58652 37 269 269 24.69192750732 24.69192750732 1 23.69192750732 23.69192750732 23.69192750732 561.30742901211
15	58689 330 308 5101 28.70385345764 553.48354068811 12 180 180 2160 388800
16	59019 470 308 5101 28.70385345764 553.48354068811 12 27.70385345764 552.48354068811 2336.7926955735 673609.13197652
17	59489 37 308 308 28.70385345764 28.70385345764 1 27.70385345764 27.70385345764 27.70385345764 767.50349640239
18	59526 383 417 3249 39.88199818757 259.53177045444 14 180 180 2520 453600
19	59909 545 417 3249 39.88199818757 259.53177045444 14 38.88199818757 258.53177045444 1910.0327143301 321023.91430951
20	60454 37 417 417 39.88199818757 39.88199818757 1 38.88199818757 38.88199818757 38.88199818757 1511.8097830582
21	60491 361 484 5295 46.75840632388 600.41054066483 13 180 180 2340 421200
22	60852 515 484 5295 46.75840632388 600.41054066483 13 45.75840632388 599.41054066483 2702.9633518322 781910.17947467
23	61367 37 484 484 46.75840632388 46.75840632388 1 45.75840632388 45.75840632388 45.75840632388 2093.8317493013
24	61404 245 627 4570 52.31903038047 482.63098509342 9 180 180 1620 291600
25	61649 348 627 4570 52.31903038047 482.63098509342 9 51.31903038047 481.63098509342 1647.6523357499 452087.46404829
26	61997 37 627 627 52.31903038047 52.31903038047 1 51.31903038047 51.31903038047 51.31903038047 2633.6428791916
27	62034 193 668 5693 56.09687398364 649.77075690231 7 180 180 1260 226800
28	62227 275 668 5693 56.09687398364 649.77075690231 7 55.09687398364 648.77075690231 2110.0895433235 940231.5047535
29	62502 37 668 668 56.09687398364 56.09687398364 1 55.09687398364 55.09687398364 55.09687398364 3035.6655227691
30	62539 249 696 5479 58.23321137287 619.65017619371 9 180 180 1620 291600
31	62788 355 696 5479 58.23321137287 619.65017619371 9 57.23321137287 618.65017619371 2669.1259802747 1091930.2765502
32	63143 37 696 696 58.23321137287 58.23321137287 1 57.23321137287 57.23321137287 57.23321137287 3275.6404840516
33	63180 223 1027 4308 89.65544754233 421.82287480858 8 180 180 1440 259200
34	63403 318 1027 4308 89.65544754233 421.82287480858 8 88.65544754233 420.82287480858 1766.6342288517 462671.29288267
35	63721 38 1027 1027 89.65544754233 89.65544754233 1 88.65544754233 88.65544754233 88.65544754233 7859.7883789308
36	63759 362 1049 5583 91.76213860622 633.92185029916 13 180 180 2340 421200
37	64121 516 1049 5583 91.76213860622 633.92185029916 13 90.76213860622 632.92185029916 4580.934738421 2097535.4091438
38	64637 38 1049 1049 91.76213860622 91.76213860622 1 90.76213860622 90.76213860622 90.76213860622 8237.7658043747
39	64675 221 1123 5921 98.1472292886 685.40760233824 8 180 180 1440 259200
40	64896 314 1123 5921 98.1472292886 685.40760233824 8 97.1472292886 684.40760233824 2557.1346592467 1111658.5536558
41	65210 36 1123 1123 98.1472292886 98.1472292886 1 97.1472292886 97.1472292886 97.1472292886 9437.5841584518
42	65246 249 1270 5821 104.26359575767 664.13805202875 9 180 180 1620 291600
43	65495 354 1270 5821 104.26359575767 664.13805202875 9 103.26359575767 663.13805202875 3970.1419347954 2085377.1112343
44	65849 40 1270 1270 104.26359575767 104.26359575767 1 103.26359575767 103.26359575767 103.26359575767 10663.370208803
45	65889 195 1354 5514 110.76181171804 624.01708568907 7 180 180 1260 226800
46	66084 278 1354 5514 110.76181171804 624.01708568907 7 109.76181171804 623.01708568907 2290.3106046726 1026105.5883171
47	66362 40 1354 1354 110.76181171804 110.76181171804 1 109.76181171804 109.76181171804 109.76181171804 12047.655311626
48	66402 251 1404 4873 115.26076504322 523.00020082099 9 180 180 1620 291600
49	66653 358 1404 4873 115.26076504322 523.00020082099 9 114.26076504322 522.00020082099 2242.7772644638 673956.76752932
50	67011 40 1404 1404 115.26076504322 115.26076504322 1 114.26076504322 114.26076504322 114.26076504322 13055.522428262
51	67051 168 1562 6297 131.27924776347 736.99959348482 6 180 180 1080 194400
52	67219 240 1562 6297 131.27924776347 736.99959348482 6 130.27924776347 735.99959348482 2398.1897590285 1279465.0938143
53	67459 40 1562 1562 131.27924776347 131.27924776347 1 130.27924776347 130.27924776347 130.27924776347 16972.682397816
54	67499 308 1716 5120 145.63177040772 558.23939349496 11 180 180 1980 356400
55	67807 440 1716 5120 145.63177040772 558.23939349496 11 144.63177040772 557.23939349496 3522.4058616374 1363064.3983922
56	68247 40 1716 1716 145.63177040772 145.63177040772 1 144.63177040772 144.63177040772 144.63177040772 20918.349011271
57	68287 252 1737 5621 147.43945291144 642.13331515196 9 180 180 1620 291600
58	68539 360 1737 5621 147.43945291144 642.13331515196 9 146.43945291144 641.13331515196 3215.813934067 1405963.9461342
59	68899 40 1737 1737 147.43945291144 147.43945291144 1 146.43945291144 146.43945291144 146.43945291144 21444.513369002
60	68939 251 1963 5532 159.53550585759 627.14878825334 9 180 180 1620 291600
61	69190 358 1963 5532 159.53550585759 627.14878825334 9 158.53550585759 626.14878825334 3400.2332917341 1538323.2758515
62	69548 40 1963 1963 159.53550585759 159.53550585759 1 158.53550585759 158.53550585759 158.53550585759 25133.506617522
63	69588 196 2013 5200 162.70353912254 576.20516563992 7 180 180 1260 226800
64	69784 280 2013 5200 162.70353912254 576.20516563992 7 161.70353912254 575.20516563992 2487.3221107983 1034518.6268497
65	70064 40 2013 2013 162.70353912254 162.70353912254 1 161.70353912254 161.70353912254 161.70353912254 26148.034564755
66	70104 252 2020 5651 163.42385632213 644.43907641916 9 180 180 1620 291600
67	70356 360 2020 5651 163.42385632213 644.43907641916 9 162.42385632213 643.43907641916 3259.5169212957 1350513.7320106
68	70716 40 2020 2020 163.42385632213 163.42385632213 1 162.42385632213 162.42385632213 162.42385632213 26381.509102552
69	70756 196 2085 4818 169.78303018835 513.03071379422 7 180 180 1260 226800
70	70952 280 2085 4818 169.78303018835 513.03071379422 7 168.78303018835 512.03071379422 2011.3023084253 661936.75949766
71	71232 40 2085 2085 169.78303018835 169.78303018835 1 168.78303018835 168.78303018835 168.78303018835 28487.711279561
72	71272 194 2276 5879 186.79724499178 674.3927240983 7 180 180 1260 226800
73	71466 276 2276 5879 186.79724499178 674.3927240983 7 185.79724499178 673.3927240983 2455.6959119465 1079565.8566945
74	71742 40 2276 2276 186.79724499178 186.79724499178 1 185.79724499178 185.79724499178 185.79724499178 34520.616246536
75	71782 364 2973 6262 242.29273043683 730.76783273596 13 180 180 2340 421200
76	72146 520 2973 6262 242.29273043683 730.76783273596 13 241.29273043683 729.76783273596 6523.3724785476 3530884.0724385
77	72666 40 2973 2973 242.29273043683 242.29273043683 1 241.29273043683 241.29273043683 241.29273043683 58222.181761661
78	72706 168 3041 5282 247.31553060695 596.48327818251 6 180 180 1080 194400
79	72874 240 3041 5282 247.31553060695 596.48327818251 6 246.31553060695 595.48327818251 2606.5098106879 1235331.1789219
80	73114 40 3041 3041 247.31553060695 247.31553060695 1 246.31553060695 246.31553060695 246.31553060695 60671.340618183
81	73154 279 3051 6248 249.55334316338 728.77909838085 10 180 180 1800 324000
82	73433 398 3051 6248 249.55334316338 728.77909838085 10 248.55334316338 727.77909838085 5246.99722403 3021541.5951584
83	73831 40 3051 3051 249.55334316338 249.55334316338 1 248.55334316338 248.55334316338 248.55334316338 61778.764397693
84	73871 83 3722 5628 313.75207572534 642.7049089881 3 180 180 540 97200
85	73954 118 3722 5628 313.75207572534 642.7049089881 3 312.75207572534 641.7049089881 1449.8978507657 755060.70284458
86	74072 40 3722 3722 313.75207572534 313.75207572534 1 312.75207572534 312.75207572534 312.75207572534 97813.860870509
87	74112 140 4362 6159 443.84935932993 712.04357015844 5 180 180 900 162000
88	74252 200 4362 6159 443.84935932993 712.04357015844 5 442.84935932993 711.04357015844 2959.3145815604 1789272.1492907
89	74452 40 4362 4362 443.84935932993 443.84935932993 1 442.84935932993 442.84935932993 442.84935932993 196115.55505893

