file 75205 1780691885                                           
version 3
run General-3-20260605-22:38:02-1048198
attr configname General
attr datetime 20260605-22:38:02
attr datetimef 20260605-223802
attr experiment General
attr inifile Test_MLModel_1.ini
attr iterationvars $0=42781
attr iterationvarsd 42781
attr iterationvarsf 42781-
attr measurement $0=42781
attr network Florasat.Test_Individual.Florasat_Individual_Sats
attr processid 1048198
attr repetition 3
attr replication #3
attr resultdir results
attr runnumber 3
attr seedset 3
config *.satellite[0].NoradModule.raan 185
config *.stats_altitude 670
config *.stats_raan 185
config image-path ../../images:../../../../samples/inet4.5_2/images
config network Florasat.Test_Individual.Florasat_Individual_Sats
config rng-class cMersenneTwister
config *.**.result-recording-modes -
config **.result-recording-modes -
config **.statistic-recording true
config **.scalar-recording true
config **.vector-recording true
config **.vector-record-eventnumbers true
config repeat 10
config seed-0-mt 42781
config sim-time-limit 749s
config simtime-resolution -11
config **.stats_altitude 670
config **.stats_raan 185
config *.radioMedium.backgroundNoise.power -110dBm
config *.radioMedium.mediumLimitCache.centerFrequency 868MHz
config *.radioMedium.mediumLimitCache.maxTransmissionDuration 4s
config *.radioMedium.mediumLimitCache.minInterferenceTime 0s
config **.numSatellites 1
config *.satellite[*].mobilityType "\"Sat_Mob_SatelliteMobility_Standalone\""
config *.satellite[*].noradModuleType "\"Sat_Mob_NoradA\""
config **.satellite[*].**.initFromDisplayString false
config *.satellite[*].mobility.faceForward true
config *.satellite[*].mobility.updateInterval 20s
config *.satellite[*].NoradModule.satName "\"FLoRaSat\""
config *.satellite[*].NoradModule.satIndex -1
config *.satellite[*].NoradModule.baseYear 20
config *.satellite[*].NoradModule.baseDay 1.5
config *.satellite[*].NoradModule.planes 1
config *.satellite[*].NoradModule.satPerPlane 1
config *.satellite[*].NoradModule.eccentricity 0.000001
config *.satellite[*].NoradModule.inclination 98
config *.satellite[*].NoradModule.altitude 670
config *.satellite[0].NoradModule.raan 185
config *.satellite[0].NoradModule.meanAnomaly 195
config *.satellite[*].phyDSL.radio.receiver.enableCollisionOverlap true
config *.satellite[*].phyDSL.radio.receiver.minCollisionOverlap 0s
config *.satellite[*].phyDSL.radio.antenna.typename ConstantGainAntenna
config *.satellite[*].phyDSL.radio.antenna.mobilityModule "\"^.^.^.mobility\""
config *.satellite[*].phyISL.radio.antenna.mobilityModule "\"^.^.^.mobility\""
config *.satellite[*].phyGSL.radio.antenna.mobilityModule "\"^.^.^.mobility\""
config *.satellite[*].phyDSL.radio.antenna.gain 12dB
config *.satellite[*].net.routingType "\"Null_Routing\""
config *.terminal[*].net.routingType "\"Ter_Null_Routing\""
config *.**.numGroundLinks 40
config *.satellite[*].**.interfaceTableModule "\"\""
config **.radioMedium.typename LoRaMedium
config **.radioMedium.analogModel.typename LoRaAnalogModel
config **.intraPlaneIslDisabled false
config **.interPlaneIslDisabled false
config **.numTerminals 30
config *.terminal[*].phy.radio.antenna.mobilityModule "\"^.^.^.mob\""
config *.terminal[*].dlk.mac.interfaceTableModule "\"\""
config *.terminal[*].dlk.energySourceModule "\"\""
config *.terminal[*].dlk.mac.LoRaTP "intuniform(12, 14)"
config *.terminal[*].dlk.mac.LoRaSF "intuniform(10, 12)"
config *.terminal[*].dlk.mac.useMLBox true
config *.terminal[*].dlk.mac.mlBox.modelPath "\"/home/ylnner/Documents/omnet++/omnetpp-6.3.0/projects/florasat_v4_ult_routing/simulations/Test_Individual/mlmodels/bilstm_scripted.pt\""
config **.numberOfPacketsToSend 0
config **.timeToFirstPacket 1s
config **.timeToNextPacket 50s
config *.terminal[0].mob.radius 0.0
config *.terminal[0].mob.centerLatitude 54.978
config *.terminal[0].mob.centerLongitude -1.617
config *.terminal[1].mob.radius 0.0
config *.terminal[1].mob.centerLatitude 52.630
config *.terminal[1].mob.centerLongitude -1.139
config *.terminal[2].mob.radius 0.0
config *.terminal[2].mob.centerLatitude 52.612
config *.terminal[2].mob.centerLongitude -6.295
config *.terminal[3].mob.radius 0.0
config *.terminal[3].mob.centerLatitude 47.243
config *.terminal[3].mob.centerLongitude 6.024
config *.terminal[4].mob.radius 0.0
config *.terminal[4].mob.centerLatitude 43.610
config *.terminal[4].mob.centerLongitude 3.876
config *.terminal[5].mob.radius 0.0
config *.terminal[5].mob.centerLatitude 49.443
config *.terminal[5].mob.centerLongitude 1.099
config *.terminal[6].mob.radius 0.0
config *.terminal[6].mob.centerLatitude 37.992
config *.terminal[6].mob.centerLongitude -1.130
config *.terminal[7].mob.radius 0.0
config *.terminal[7].mob.centerLatitude 40.965
config *.terminal[7].mob.centerLongitude -5.664
config *.terminal[8].mob.radius 0.0
config *.terminal[8].mob.centerLatitude 40.657
config *.terminal[8].mob.centerLongitude -7.914
config *.terminal[9].mob.radius 0.0
config *.terminal[9].mob.centerLatitude 51.340
config *.terminal[9].mob.centerLongitude 12.373
config *.terminal[10].mob.radius 0.0
config *.terminal[10].mob.centerLatitude 51.455
config *.terminal[10].mob.centerLongitude 7.011
config *.terminal[11].mob.radius 0.0
config *.terminal[11].mob.centerLatitude 49.452
config *.terminal[11].mob.centerLongitude 11.076
config *.terminal[12].mob.radius 0.0
config *.terminal[12].mob.centerLatitude 43.769
config *.terminal[12].mob.centerLongitude 11.255
config *.terminal[13].mob.radius 0.0
config *.terminal[13].mob.centerLatitude 41.117
config *.terminal[13].mob.centerLongitude 16.871
config *.terminal[14].mob.radius 0.0
config *.terminal[14].mob.centerLatitude 52.132
config *.terminal[14].mob.centerLongitude 5.291
config *.terminal[15].mob.radius 0.0
config *.terminal[15].mob.centerLatitude 50.411
config *.terminal[15].mob.centerLongitude 4.444
config *.terminal[16].mob.radius 0.0
config *.terminal[16].mob.centerLatitude 47.559
config *.terminal[16].mob.centerLongitude 7.588
config *.terminal[17].mob.radius 0.0
config *.terminal[17].mob.centerLatitude 55.403
config *.terminal[17].mob.centerLongitude 10.402
config *.terminal[18].mob.radius 0.0
config *.terminal[18].mob.centerLatitude 59.858
config *.terminal[18].mob.centerLongitude 17.638
config *.terminal[19].mob.radius 0.0
config *.terminal[19].mob.centerLatitude 60.451
config *.terminal[19].mob.centerLongitude 22.266
config *.terminal[20].mob.radius 0.0
config *.terminal[20].mob.centerLatitude 56.325
config *.terminal[20].mob.centerLongitude 22.349
config *.terminal[21].mob.radius 0.0
config *.terminal[21].mob.centerLatitude 49.883
config *.terminal[21].mob.centerLongitude 18.568
config *.terminal[22].mob.radius 0.0
config *.terminal[22].mob.centerLatitude 47.531
config *.terminal[22].mob.centerLongitude 21.627
config *.terminal[23].mob.radius 0.0
config *.terminal[23].mob.centerLatitude 44.179
config *.terminal[23].mob.centerLongitude 28.649
config *.terminal[24].mob.radius 0.0
config *.terminal[24].mob.centerLatitude 45.327
config *.terminal[24].mob.centerLongitude 14.442
config *.terminal[25].mob.radius 0.0
config *.terminal[25].mob.centerLatitude 40.694
config *.terminal[25].mob.centerLongitude 30.400
config *.terminal[26].mob.radius 0.0
config *.terminal[26].mob.centerLatitude 37.066
config *.terminal[26].mob.centerLongitude 37.383
config *.terminal[27].mob.radius 0.0
config *.terminal[27].mob.centerLatitude 64.836
config *.terminal[27].mob.centerLongitude -23.708
config *.terminal[28].mob.radius 0.0
config *.terminal[28].mob.centerLatitude 28.099
config *.terminal[28].mob.centerLongitude -17.113
config *.terminal[29].mob.radius 0.0
config *.terminal[29].mob.centerLatitude 34.921
config *.terminal[29].mob.centerLongitude 33.623
config **.numStations 3
config **.numStations 3
config *.station[0].mobility.latitude 55.752
config *.station[0].mobility.longitude 37.616
config *.station[0].cityName "\"Moscow\""
config *.station[0].groundStationId 7
config *.station[0].routerAddr "\"10.0.0.29\""
config *.station[0].serving "\"10.0.0.29\""
config *.station[1].mobility.latitude 28.652
config *.station[1].mobility.longitude 77.231
config *.station[1].cityName "\"Delhi\""
config *.station[1].groundStationId 11
config *.station[1].routerAddr "\"10.0.0.45\""
config *.station[1].serving "\"10.0.0.45\""
config *.station[2].mobility.latitude 25.35
config *.station[2].mobility.longitude 51.24
config *.station[2].cityName "\"Katar\""
config *.station[2].groundStationId 19
config *.station[2].routerAddr "\"10.0.0.77\""
config *.station[2].serving "\"10.0.0.77\""
config *.visualizer.canvasVisualizer.mediumVisualizer.typename ""
config *.visualizer.*.radioVisualizer.displayAntennaLobes true
config *.visualizer.*.dataLinkVisualizer.displayLinks true
config *.visualizer.*.mobilityVisualizer.displayMovementTrails true
config *.visualizer.*.mobilityVisualizer.movementTrailLineWidth 1
config *.visualizer.*.mobilityVisualizer.trailLength 3000
config **.ttxStart_max 30s
config **.ttxIdle_min 10s
config **.ttxIdle_max 25s
config **.Ntw 2
config **.Ntx 45
config **.ttwDuration 550s

vector 0 Florasat_Individual_Sats.satellite[0].dlkDSL.mac "Satellite Position when Repetition Received" ETV
vector 1 Florasat_Individual_Sats.satellite[0].dlkDSL.mac "Repetition Position for Node 358 at Satellite" ETV
vector 2 Florasat_Individual_Sats.satellite[0].dlkDSL.mac "All Nodes Repetition Generation Delay at Satellite" ETV
vector 3 Florasat_Individual_Sats.satellite[0].dlkDSL.mac "Repetition Generation Delay for Node 358 at Satellite" ETV
vector 4 Florasat_Individual_Sats.satellite[0].dlkDSL.mac "All Nodes Message Generation Delay at Satellite" ETV
vector 5 Florasat_Individual_Sats.satellite[0].dlkDSL.mac "Message Generation Delay for Node 358 at Satellite" ETV
vector 6 Florasat_Individual_Sats.satellite[0].net.packetHandler "packets received" ETV
vector 7 Florasat_Individual_Sats.satellite[0].net.packetHandler "dropped unroutable" ETV
vector 8 Florasat_Individual_Sats.satellite[0].net.packetHandler "packets dropped" ETV
vector 9 Florasat_Individual_Sats.satellite[0].dlkDSL.mac "Repetition Position for Node 313 at Satellite" ETV
vector 10 Florasat_Individual_Sats.satellite[0].dlkDSL.mac "Repetition Generation Delay for Node 313 at Satellite" ETV
vector 11 Florasat_Individual_Sats.satellite[0].dlkDSL.mac "Message Generation Delay for Node 313 at Satellite" ETV
vector 12 Florasat_Individual_Sats.satellite[0].dlkDSL.mac "Repetition Position for Node 193 at Satellite" ETV
vector 13 Florasat_Individual_Sats.satellite[0].dlkDSL.mac "Repetition Generation Delay for Node 193 at Satellite" ETV
vector 14 Florasat_Individual_Sats.satellite[0].dlkDSL.mac "Message Generation Delay for Node 193 at Satellite" ETV
vector 15 Florasat_Individual_Sats.satellite[0].dlkDSL.mac "Repetition Position for Node 463 at Satellite" ETV
vector 16 Florasat_Individual_Sats.satellite[0].dlkDSL.mac "Repetition Generation Delay for Node 463 at Satellite" ETV
vector 17 Florasat_Individual_Sats.satellite[0].dlkDSL.mac "Message Generation Delay for Node 463 at Satellite" ETV
vector 18 Florasat_Individual_Sats.satellite[0].dlkDSL.mac "Repetition Position for Node 58 at Satellite" ETV
vector 19 Florasat_Individual_Sats.satellite[0].dlkDSL.mac "Repetition Generation Delay for Node 58 at Satellite" ETV
vector 20 Florasat_Individual_Sats.satellite[0].dlkDSL.mac "Message Generation Delay for Node 58 at Satellite" ETV
vector 21 Florasat_Individual_Sats.satellite[0].dlkDSL.mac "Repetition Position for Node 343 at Satellite" ETV
vector 22 Florasat_Individual_Sats.satellite[0].dlkDSL.mac "Repetition Generation Delay for Node 343 at Satellite" ETV
vector 23 Florasat_Individual_Sats.satellite[0].dlkDSL.mac "Message Generation Delay for Node 343 at Satellite" ETV
vector 24 Florasat_Individual_Sats.satellite[0].dlkDSL.mac "Repetition Position for Node 283 at Satellite" ETV
vector 25 Florasat_Individual_Sats.satellite[0].dlkDSL.mac "Repetition Generation Delay for Node 283 at Satellite" ETV
vector 26 Florasat_Individual_Sats.satellite[0].dlkDSL.mac "Message Generation Delay for Node 283 at Satellite" ETV
vector 27 Florasat_Individual_Sats.satellite[0].dlkDSL.mac "Repetition Position for Node 73 at Satellite" ETV
vector 28 Florasat_Individual_Sats.satellite[0].dlkDSL.mac "Repetition Generation Delay for Node 73 at Satellite" ETV
vector 29 Florasat_Individual_Sats.satellite[0].dlkDSL.mac "Message Generation Delay for Node 73 at Satellite" ETV
vector 30 Florasat_Individual_Sats.satellite[0].dlkDSL.mac "Repetition Position for Node 298 at Satellite" ETV
vector 31 Florasat_Individual_Sats.satellite[0].dlkDSL.mac "Repetition Generation Delay for Node 298 at Satellite" ETV
vector 32 Florasat_Individual_Sats.satellite[0].dlkDSL.mac "Message Generation Delay for Node 298 at Satellite" ETV
vector 33 Florasat_Individual_Sats.satellite[0].dlkDSL.mac "Repetition Position for Node 223 at Satellite" ETV
vector 34 Florasat_Individual_Sats.satellite[0].dlkDSL.mac "Repetition Generation Delay for Node 223 at Satellite" ETV
vector 35 Florasat_Individual_Sats.satellite[0].dlkDSL.mac "Message Generation Delay for Node 223 at Satellite" ETV
vector 36 Florasat_Individual_Sats.satellite[0].dlkDSL.mac "Repetition Position for Node 268 at Satellite" ETV
vector 37 Florasat_Individual_Sats.satellite[0].dlkDSL.mac "Repetition Generation Delay for Node 268 at Satellite" ETV
vector 38 Florasat_Individual_Sats.satellite[0].dlkDSL.mac "Message Generation Delay for Node 268 at Satellite" ETV
vector 39 Florasat_Individual_Sats.satellite[0].dlkDSL.mac "Repetition Position for Node 388 at Satellite" ETV
vector 40 Florasat_Individual_Sats.satellite[0].dlkDSL.mac "Repetition Generation Delay for Node 388 at Satellite" ETV
vector 41 Florasat_Individual_Sats.satellite[0].dlkDSL.mac "Message Generation Delay for Node 388 at Satellite" ETV
vector 42 Florasat_Individual_Sats.satellite[0].dlkDSL.mac "Repetition Position for Node 433 at Satellite" ETV
vector 43 Florasat_Individual_Sats.satellite[0].dlkDSL.mac "Repetition Generation Delay for Node 433 at Satellite" ETV
vector 44 Florasat_Individual_Sats.satellite[0].dlkDSL.mac "Message Generation Delay for Node 433 at Satellite" ETV
vector 45 Florasat_Individual_Sats.satellite[0].dlkDSL.mac "Repetition Position for Node 328 at Satellite" ETV
vector 46 Florasat_Individual_Sats.satellite[0].dlkDSL.mac "Repetition Generation Delay for Node 328 at Satellite" ETV
vector 47 Florasat_Individual_Sats.satellite[0].dlkDSL.mac "Message Generation Delay for Node 328 at Satellite" ETV
vector 48 Florasat_Individual_Sats.satellite[0].dlkDSL.mac "Repetition Position for Node 403 at Satellite" ETV
vector 49 Florasat_Individual_Sats.satellite[0].dlkDSL.mac "Repetition Generation Delay for Node 403 at Satellite" ETV
vector 50 Florasat_Individual_Sats.satellite[0].dlkDSL.mac "Message Generation Delay for Node 403 at Satellite" ETV
vector 51 Florasat_Individual_Sats.satellite[0].dlkDSL.mac "Repetition Position for Node 88 at Satellite" ETV
vector 52 Florasat_Individual_Sats.satellite[0].dlkDSL.mac "Repetition Generation Delay for Node 88 at Satellite" ETV
vector 53 Florasat_Individual_Sats.satellite[0].dlkDSL.mac "Message Generation Delay for Node 88 at Satellite" ETV
vector 54 Florasat_Individual_Sats.satellite[0].dlkDSL.mac "Repetition Position for Node 253 at Satellite" ETV
vector 55 Florasat_Individual_Sats.satellite[0].dlkDSL.mac "Repetition Generation Delay for Node 253 at Satellite" ETV
vector 56 Florasat_Individual_Sats.satellite[0].dlkDSL.mac "Message Generation Delay for Node 253 at Satellite" ETV
vector 57 Florasat_Individual_Sats.satellite[0].dlkDSL.mac "Repetition Position for Node 373 at Satellite" ETV
vector 58 Florasat_Individual_Sats.satellite[0].dlkDSL.mac "Repetition Generation Delay for Node 373 at Satellite" ETV
vector 59 Florasat_Individual_Sats.satellite[0].dlkDSL.mac "Message Generation Delay for Node 373 at Satellite" ETV
vector 60 Florasat_Individual_Sats.satellite[0].dlkDSL.mac "Repetition Position for Node 418 at Satellite" ETV
vector 61 Florasat_Individual_Sats.satellite[0].dlkDSL.mac "Repetition Generation Delay for Node 418 at Satellite" ETV
vector 62 Florasat_Individual_Sats.satellite[0].dlkDSL.mac "Message Generation Delay for Node 418 at Satellite" ETV
vector 63 Florasat_Individual_Sats.satellite[0].dlkDSL.mac "Repetition Position for Node 133 at Satellite" ETV
vector 64 Florasat_Individual_Sats.satellite[0].dlkDSL.mac "Repetition Generation Delay for Node 133 at Satellite" ETV
vector 65 Florasat_Individual_Sats.satellite[0].dlkDSL.mac "Message Generation Delay for Node 133 at Satellite" ETV
vector 66 Florasat_Individual_Sats.satellite[0].dlkDSL.mac "Repetition Position for Node 208 at Satellite" ETV
vector 67 Florasat_Individual_Sats.satellite[0].dlkDSL.mac "Repetition Generation Delay for Node 208 at Satellite" ETV
vector 68 Florasat_Individual_Sats.satellite[0].dlkDSL.mac "Message Generation Delay for Node 208 at Satellite" ETV
vector 69 Florasat_Individual_Sats.satellite[0].dlkDSL.mac "Repetition Position for Node 448 at Satellite" ETV
vector 70 Florasat_Individual_Sats.satellite[0].dlkDSL.mac "Repetition Generation Delay for Node 448 at Satellite" ETV
vector 71 Florasat_Individual_Sats.satellite[0].dlkDSL.mac "Message Generation Delay for Node 448 at Satellite" ETV
vector 72 Florasat_Individual_Sats.satellite[0].dlkDSL.mac "Repetition Position for Node 118 at Satellite" ETV
vector 73 Florasat_Individual_Sats.satellite[0].dlkDSL.mac "Repetition Generation Delay for Node 118 at Satellite" ETV
vector 74 Florasat_Individual_Sats.satellite[0].dlkDSL.mac "Message Generation Delay for Node 118 at Satellite" ETV
vector 75 Florasat_Individual_Sats.satellite[0].dlkDSL.mac "Repetition Position for Node 103 at Satellite" ETV
vector 76 Florasat_Individual_Sats.satellite[0].dlkDSL.mac "Repetition Generation Delay for Node 103 at Satellite" ETV
vector 77 Florasat_Individual_Sats.satellite[0].dlkDSL.mac "Message Generation Delay for Node 103 at Satellite" ETV
vector 78 Florasat_Individual_Sats.satellite[0].dlkDSL.mac "Repetition Position for Node 148 at Satellite" ETV
vector 79 Florasat_Individual_Sats.satellite[0].dlkDSL.mac "Repetition Generation Delay for Node 148 at Satellite" ETV
vector 80 Florasat_Individual_Sats.satellite[0].dlkDSL.mac "Message Generation Delay for Node 148 at Satellite" ETV
vector 81 Florasat_Individual_Sats.satellite[0].dlkDSL.mac "Repetition Position for Node 238 at Satellite" ETV
vector 82 Florasat_Individual_Sats.satellite[0].dlkDSL.mac "Repetition Generation Delay for Node 238 at Satellite" ETV
vector 83 Florasat_Individual_Sats.satellite[0].dlkDSL.mac "Message Generation Delay for Node 238 at Satellite" ETV
vector 84 Florasat_Individual_Sats.satellite[0].dlkDSL.mac "Repetition Position for Node 178 at Satellite" ETV
vector 85 Florasat_Individual_Sats.satellite[0].dlkDSL.mac "Repetition Generation Delay for Node 178 at Satellite" ETV
vector 86 Florasat_Individual_Sats.satellite[0].dlkDSL.mac "Message Generation Delay for Node 178 at Satellite" ETV
vector 87 Florasat_Individual_Sats.satellite[0].dlkDSL.mac "Repetition Position for Node 163 at Satellite" ETV
vector 88 Florasat_Individual_Sats.satellite[0].dlkDSL.mac "Repetition Generation Delay for Node 163 at Satellite" ETV
vector 89 Florasat_Individual_Sats.satellite[0].dlkDSL.mac "Message Generation Delay for Node 163 at Satellite" ETV
0	19321 6803 145 6257 5.4876896908 732.8113789746 255 180 180 45900 8262000
1	26124 290 145 4970 5.4876896908 545.12266420935 11 180 180 1980 356400
2	26414 9801 145 6257 5.4876896908 732.8113789746 255 4.4876896908 731.8113789746 79162.88471585 34411272.038771
3	36215 417 145 4970 5.4876896908 545.12266420935 11 4.4876896908 544.12266420935 2257.8425075247 686084.13580812
4	36632 1044 145 4051 5.4876896908 380.39951819806 28 4.4876896908 379.39951819806 3816.8418475259 849649.53570908
5	37676 32 145 145 5.4876896908 5.4876896908 1 4.4876896908 4.4876896908 4.4876896908 20.139358760913
6	37708 6695 146 6258 5.4876896908 732.8113789746 255 1 255 32640 5559680
7	44403 6695 146 6258 5.4876896908 732.8113789746 255 1 255 32640 5559680
8	51098 6695 146 6258 5.4876896908 732.8113789746 255 1 255 32640 5559680
9	57793 345 190 4915 14.09318205429 531.63747917271 13 180 180 2340 421200
10	58138 511 190 4915 14.09318205429 531.63747917271 13 13.09318205429 530.63747917271 2485.9972444858 684602.32329697
11	58649 37 190 190 14.09318205429 14.09318205429 1 13.09318205429 13.09318205429 13.09318205429 171.43141630678
12	58686 329 198 4404 14.63470335345 448.0384172906 12 180 180 2160 388800
13	59015 468 198 4404 14.63470335345 448.0384172906 12 13.63470335345 447.0384172906 2153.388910524 537455.38091742
14	59483 37 198 198 14.63470335345 14.63470335345 1 13.63470335345 13.63470335345 13.63470335345 185.90513553658
15	59520 216 278 3566 24.31986141231 289.74881682408 8 180 180 1440 259200
16	59736 307 278 3566 24.31986141231 289.74881682408 8 23.31986141231 288.74881682408 1054.692776124 198223.92276231
17	60043 37 278 278 24.31986141231 24.31986141231 1 23.31986141231 23.31986141231 23.31986141231 543.81593628934
18	60080 303 384 4284 34.14714390508 418.93975740044 11 180 180 1980 356400
19	60383 432 384 4284 34.14714390508 418.93975740044 11 33.14714390508 417.93975740044 2156.865556411 548263.14562564
20	60815 37 384 384 34.14714390508 34.14714390508 1 33.14714390508 33.14714390508 33.14714390508 1098.7331490641
21	60852 384 392 4670 34.85845666672 492.9103887611 14 180 180 2520 453600
22	61236 546 392 4670 34.85845666672 492.9103887611 14 33.85845666672 491.9103887611 2329.2341715603 546308.36671152
23	61782 37 392 392 34.85845666672 34.85845666672 1 33.85845666672 33.85845666672 33.85845666672 1146.3950878522
24	61819 362 411 5824 37.15264416243 667.92302055578 13 180 180 2340 421200
25	62181 517 411 5824 37.15264416243 667.92302055578 13 36.15264416243 666.92302055578 4251.3891826059 1926805.2839872
26	62698 37 411 411 37.15264416243 37.15264416243 1 36.15264416243 36.15264416243 36.15264416243 1307.0136799353
27	62735 276 496 4990 46.87394018577 550.60601290142 10 180 180 1800 324000
28	63011 393 496 4990 46.87394018577 550.60601290142 10 45.87394018577 549.60601290142 2718.2324931446 1057447.1595153
29	63404 37 496 496 46.87394018577 46.87394018577 1 45.87394018577 45.87394018577 45.87394018577 2104.4183881676
30	63441 222 688 6217 54.12166652213 728.74174873987 8 180 180 1440 259200
31	63663 317 688 6217 54.12166652213 728.74174873987 8 53.12166652213 727.74174873987 2980.1378348884 1502976.3741111
32	63980 37 688 688 54.12166652213 54.12166652213 1 53.12166652213 53.12166652213 53.12166652213 2821.9114540884
33	64017 303 723 5902 58.05916624902 683.68943598181 11 180 180 1980 356400
34	64320 431 723 5902 58.05916624902 683.68943598181 11 57.05916624902 682.68943598181 3943.262342115 1769136.1216407
35	64751 37 723 723 58.05916624902 58.05916624902 1 57.05916624902 57.05916624902 57.05916624902 3255.7484530333
36	64788 277 842 4242 71.05302982026 408.13083842041 10 180 180 1800 324000
37	65065 395 842 4242 71.05302982026 408.13083842041 10 70.05302982026 407.13083842041 2063.0317731975 534695.88723028
38	65460 37 842 842 71.05302982026 71.05302982026 1 70.05302982026 70.05302982026 70.05302982026 4907.4269869982
39	65497 302 991 5254 84.94396986317 590.42080219247 11 180 180 1980 356400
40	65799 429 991 5254 84.94396986317 590.42080219247 11 83.94396986317 589.42080219247 2359.4859684878 695474.84987443
41	66228 37 991 991 84.94396986317 84.94396986317 1 83.94396986317 83.94396986317 83.94396986317 7046.5900763888
42	66265 278 998 6130 85.24148417232 710.83207264136 10 180 180 1800 324000
43	66543 397 998 6130 85.24148417232 710.83207264136 10 84.24148417232 709.83207264136 3380.841056196 1686669.5868409
44	66940 37 998 998 85.24148417232 85.24148417232 1 84.24148417232 84.24148417232 84.24148417232 7096.6276555552
45	66977 335 1153 5518 100.3673800568 620.03644791761 12 180 180 2160 388800
46	67312 477 1153 5518 100.3673800568 620.03644791761 12 99.3673800568 619.03644791761 3610.1244286047 1487506.2501088
47	67789 37 1153 1153 100.3673800568 100.3673800568 1 99.3673800568 99.3673800568 99.3673800568 9873.8762193525
48	67826 166 1468 5447 118.93461826084 610.32945227169 6 180 180 1080 194400
49	67992 236 1468 5447 118.93461826084 610.32945227169 6 117.93461826084 609.32945227169 1471.6686099649 527495.76545741
50	68228 40 1468 1468 118.93461826084 118.93461826084 1 117.93461826084 117.93461826084 117.93461826084 13908.57418433
51	68268 223 1686 3532 139.21280501987 286.91555769411 8 180 180 1440 259200
52	68491 318 1686 3532 139.21280501987 286.91555769411 8 138.21280501987 285.91555769411 1742.7604856482 397254.02753684
53	68809 40 1686 1686 139.21280501987 139.21280501987 1 138.21280501987 138.21280501987 138.21280501987 19102.779471461
54	68849 140 1699 5174 141.20364222773 571.69523387196 5 180 180 900 162000
55	68989 200 1699 5174 141.20364222773 571.69523387196 5 140.20364222773 570.69523387196 1582.6189439152 615960.54467791
56	69189 40 1699 1699 141.20364222773 141.20364222773 1 140.20364222773 140.20364222773 140.20364222773 19657.061293921
57	69229 251 1737 4602 144.49156980373 480.18859905415 9 180 180 1620 291600
58	69480 358 1737 4602 144.49156980373 480.18859905415 9 143.49156980373 479.18859905415 2332.5073186525 720826.42199939
59	69838 40 1737 1737 144.49156980373 144.49156980373 1 143.49156980373 143.49156980373 143.49156980373 20589.830604739
60	69878 252 2047 6167 162.64473348384 715.25034745451 9 180 180 1620 291600
61	70130 360 2047 6167 162.64473348384 715.25034745451 9 161.64473348384 714.25034745451 2997.4697885182 1241501.8140693
62	70490 40 2047 2047 162.64473348384 162.64473348384 1 161.64473348384 161.64473348384 161.64473348384 26129.019863062
63	70530 251 2742 5530 213.44867921881 625.36775439027 9 180 180 1620 291600
64	70781 358 2742 5530 213.44867921881 625.36775439027 9 212.44867921881 624.36775439027 3509.7313122926 1509773.1848964
65	71139 40 2742 2742 213.44867921881 213.44867921881 1 212.44867921881 212.44867921881 212.44867921881 45134.441301817
66	71179 304 2751 6205 214.29868411566 723.722166408 11 180 180 1980 356400
67	71483 432 2751 6205 214.29868411566 723.722166408 11 213.29868411566 722.722166408 4990.2518248413 2744046.6554658
68	71915 40 2751 2751 214.29868411566 214.29868411566 1 213.29868411566 213.29868411566 213.29868411566 45496.328645472
69	71955 112 2763 5295 216.46158017043 595.03031705566 4 180 180 720 129600
70	72067 160 2763 5295 216.46158017043 595.03031705566 4 215.46158017043 594.03031705566 1913.3161771498 1010052.7053138
71	72227 40 2763 2763 216.46158017043 216.46158017043 1 215.46158017043 215.46158017043 215.46158017043 46423.692529539
72	72267 167 3098 6099 245.08679564055 705.72406376773 6 180 180 1080 194400
73	72434 238 3098 6099 245.08679564055 705.72406376773 6 244.08679564055 704.72406376773 3011.6932623728 1672742.6949481
74	72672 40 3098 3098 245.08679564055 245.08679564055 1 244.08679564055 244.08679564055 244.08679564055 59578.363806072
75	72712 140 3276 5283 251.94242929102 593.10475376894 5 180 180 900 162000
76	72852 200 3276 5283 251.94242929102 593.10475376894 5 250.94242929102 592.10475376894 1951.2287959302 834282.72390013
77	73052 40 3276 3276 251.94242929102 251.94242929102 1 250.94242929102 250.94242929102 250.94242929102 62972.102818479
78	73092 166 3522 6082 286.4425532025 701.71156925326 6 180 180 1080 194400
79	73258 236 3522 6082 286.4425532025 701.71156925326 6 285.4425532025 700.71156925326 3431.657205941 2082714.1449654
80	73494 38 3522 3522 286.4425532025 286.4425532025 1 285.4425532025 285.4425532025 285.4425532025 81477.451178762
81	73532 139 3550 5964 288.16294060883 696.21752904941 5 180 180 900 162000
82	73671 198 3550 5964 288.16294060883 696.21752904941 5 287.16294060883 695.21752904941 2127.2306490574 1019707.6526112
83	73869 40 3550 3550 288.16294060883 288.16294060883 1 287.16294060883 287.16294060883 287.16294060883 82462.55445911
84	73909 194 4040 6257 376.75698016946 732.8113789746 7 180 180 1260 226800
85	74103 276 4040 6257 376.75698016946 732.8113789746 7 375.75698016946 731.8113789746 4185.3713589431 2587175.230123
86	74379 40 4040 4040 376.75698016946 376.75698016946 1 375.75698016946 375.75698016946 375.75698016946 141193.30814607
87	74419 307 4051 6234 380.39951819806 730.97048453166 11 180 180 1980 356400
88	74726 438 4051 6234 380.39951819806 730.97048453166 11 379.39951819806 729.97048453166 6170.8527367531 3586089.6843751
89	75164 40 4051 4051 380.39951819806 380.39951819806 1 379.39951819806 379.39951819806 379.39951819806 143943.99440892

