version 3
run General-6-20260605-22:38:11-1048198
attr configname General
attr datetime 20260605-22:38:11
attr datetimef 20260605-223811
attr experiment General
attr inifile Test_MLModel_1.ini
attr iterationvars $0=27456
attr iterationvarsd 27456
attr iterationvarsf 27456-
attr measurement $0=27456
attr network Florasat.Test_Individual.Florasat_Individual_Sats
attr processid 1048198
attr repetition 6
attr replication #6
attr resultdir results
attr runnumber 6
attr seedset 6
config *.satellite[0].NoradModule.raan 185
config *.stats_altitude 670
config *.stats_raan 185
config image-path ../../images:../../../../samples/inet4.5_2/images
config network Florasat.Test_Individual.Florasat_Individual_Sats
config rng-class cMersenneTwister
config *.**.result-recording-modes -
config **.result-recording-modes -
config **.statistic-recording true
config **.scalar-recording true
config **.vector-recording true
config **.vector-record-eventnumbers true
config repeat 10
config seed-0-mt 27456
config sim-time-limit 749s
config simtime-resolution -11
config **.stats_altitude 670
config **.stats_raan 185
config *.radioMedium.backgroundNoise.power -110dBm
config *.radioMedium.mediumLimitCache.centerFrequency 868MHz
config *.radioMedium.mediumLimitCache.maxTransmissionDuration 4s
config *.radioMedium.mediumLimitCache.minInterferenceTime 0s
config **.numSatellites 1
config *.satellite[*].mobilityType "\"Sat_Mob_SatelliteMobility_Standalone\""
config *.satellite[*].noradModuleType "\"Sat_Mob_NoradA\""
config **.satellite[*].**.initFromDisplayString false
config *.satellite[*].mobility.faceForward true
config *.satellite[*].mobility.updateInterval 20s
config *.satellite[*].NoradModule.satName "\"FLoRaSat\""
config *.satellite[*].NoradModule.satIndex -1
config *.satellite[*].NoradModule.baseYear 20
config *.satellite[*].NoradModule.baseDay 1.5
config *.satellite[*].NoradModule.planes 1
config *.satellite[*].NoradModule.satPerPlane 1
config *.satellite[*].NoradModule.eccentricity 0.000001
config *.satellite[*].NoradModule.inclination 98
config *.satellite[*].NoradModule.altitude 670
config *.satellite[0].NoradModule.raan 185
config *.satellite[0].NoradModule.meanAnomaly 195
config *.satellite[*].phyDSL.radio.receiver.enableCollisionOverlap true
config *.satellite[*].phyDSL.radio.receiver.minCollisionOverlap 0s
config *.satellite[*].phyDSL.radio.antenna.typename ConstantGainAntenna
config *.satellite[*].phyDSL.radio.antenna.mobilityModule "\"^.^.^.mobility\""
config *.satellite[*].phyISL.radio.antenna.mobilityModule "\"^.^.^.mobility\""
config *.satellite[*].phyGSL.radio.antenna.mobilityModule "\"^.^.^.mobility\""
config *.satellite[*].phyDSL.radio.antenna.gain 12dB
config *.satellite[*].net.routingType "\"Null_Routing\""
config *.terminal[*].net.routingType "\"Ter_Null_Routing\""
config *.**.numGroundLinks 40
config *.satellite[*].**.interfaceTableModule "\"\""
config **.radioMedium.typename LoRaMedium
config **.radioMedium.analogModel.typename LoRaAnalogModel
config **.intraPlaneIslDisabled false
config **.interPlaneIslDisabled false
config **.numTerminals 30
config *.terminal[*].phy.radio.antenna.mobilityModule "\"^.^.^.mob\""
config *.terminal[*].dlk.mac.interfaceTableModule "\"\""
config *.terminal[*].dlk.energySourceModule "\"\""
config *.terminal[*].dlk.mac.LoRaTP "intuniform(12, 14)"
config *.terminal[*].dlk.mac.LoRaSF "intuniform(10, 12)"
config *.terminal[*].dlk.mac.useMLBox true
config *.terminal[*].dlk.mac.mlBox.modelPath "\"/home/ylnner/Documents/omnet++/omnetpp-6.3.0/projects/florasat_v4_ult_routing/simulations/Test_Individual/mlmodels/bilstm_scripted.pt\""
config **.numberOfPacketsToSend 0
config **.timeToFirstPacket 1s
config **.timeToNextPacket 50s
config *.terminal[0].mob.radius 0.0
config *.terminal[0].mob.centerLatitude 54.978
config *.terminal[0].mob.centerLongitude -1.617
config *.terminal[1].mob.radius 0.0
config *.terminal[1].mob.centerLatitude 52.630
config *.terminal[1].mob.centerLongitude -1.139
config *.terminal[2].mob.radius 0.0
config *.terminal[2].mob.centerLatitude 52.612
config *.terminal[2].mob.centerLongitude -6.295
config *.terminal[3].mob.radius 0.0
config *.terminal[3].mob.centerLatitude 47.243
config *.terminal[3].mob.centerLongitude 6.024
config *.terminal[4].mob.radius 0.0
config *.terminal[4].mob.centerLatitude 43.610
config *.terminal[4].mob.centerLongitude 3.876
config *.terminal[5].mob.radius 0.0
config *.terminal[5].mob.centerLatitude 49.443
config *.terminal[5].mob.centerLongitude 1.099
config *.terminal[6].mob.radius 0.0
config *.terminal[6].mob.centerLatitude 37.992
config *.terminal[6].mob.centerLongitude -1.130
config *.terminal[7].mob.radius 0.0
config *.terminal[7].mob.centerLatitude 40.965
config *.terminal[7].mob.centerLongitude -5.664
config *.terminal[8].mob.radius 0.0
config *.terminal[8].mob.centerLatitude 40.657
config *.terminal[8].mob.centerLongitude -7.914
config *.terminal[9].mob.radius 0.0
config *.terminal[9].mob.centerLatitude 51.340
config *.terminal[9].mob.centerLongitude 12.373
config *.terminal[10].mob.radius 0.0
config *.terminal[10].mob.centerLatitude 51.455
config *.terminal[10].mob.centerLongitude 7.011
config *.terminal[11].mob.radius 0.0
config *.terminal[11].mob.centerLatitude 49.452
config *.terminal[11].mob.centerLongitude 11.076
config *.terminal[12].mob.radius 0.0
config *.terminal[12].mob.centerLatitude 43.769
config *.terminal[12].mob.centerLongitude 11.255
config *.terminal[13].mob.radius 0.0
config *.terminal[13].mob.centerLatitude 41.117
config *.terminal[13].mob.centerLongitude 16.871
config *.terminal[14].mob.radius 0.0
config *.terminal[14].mob.centerLatitude 52.132
config *.terminal[14].mob.centerLongitude 5.291
config *.terminal[15].mob.radius 0.0
config *.terminal[15].mob.centerLatitude 50.411
config *.terminal[15].mob.centerLongitude 4.444
config *.terminal[16].mob.radius 0.0
config *.terminal[16].mob.centerLatitude 47.559
config *.terminal[16].mob.centerLongitude 7.588
config *.terminal[17].mob.radius 0.0
config *.terminal[17].mob.centerLatitude 55.403
config *.terminal[17].mob.centerLongitude 10.402
config *.terminal[18].mob.radius 0.0
config *.terminal[18].mob.centerLatitude 59.858
config *.terminal[18].mob.centerLongitude 17.638
config *.terminal[19].mob.radius 0.0
config *.terminal[19].mob.centerLatitude 60.451
config *.terminal[19].mob.centerLongitude 22.266
config *.terminal[20].mob.radius 0.0
config *.terminal[20].mob.centerLatitude 56.325
config *.terminal[20].mob.centerLongitude 22.349
config *.terminal[21].mob.radius 0.0
config *.terminal[21].mob.centerLatitude 49.883
config *.terminal[21].mob.centerLongitude 18.568
config *.terminal[22].mob.radius 0.0
config *.terminal[22].mob.centerLatitude 47.531
config *.terminal[22].mob.centerLongitude 21.627
config *.terminal[23].mob.radius 0.0
config *.terminal[23].mob.centerLatitude 44.179
config *.terminal[23].mob.centerLongitude 28.649
config *.terminal[24].mob.radius 0.0
config *.terminal[24].mob.centerLatitude 45.327
config *.terminal[24].mob.centerLongitude 14.442
config *.terminal[25].mob.radius 0.0
config *.terminal[25].mob.centerLatitude 40.694
config *.terminal[25].mob.centerLongitude 30.400
config *.terminal[26].mob.radius 0.0
config *.terminal[26].mob.centerLatitude 37.066
config *.terminal[26].mob.centerLongitude 37.383
config *.terminal[27].mob.radius 0.0
config *.terminal[27].mob.centerLatitude 64.836
config *.terminal[27].mob.centerLongitude -23.708
config *.terminal[28].mob.radius 0.0
config *.terminal[28].mob.centerLatitude 28.099
config *.terminal[28].mob.centerLongitude -17.113
config *.terminal[29].mob.radius 0.0
config *.terminal[29].mob.centerLatitude 34.921
config *.terminal[29].mob.centerLongitude 33.623
config **.numStations 3
config **.numStations 3
config *.station[0].mobility.latitude 55.752
config *.station[0].mobility.longitude 37.616
config *.station[0].cityName "\"Moscow\""
config *.station[0].groundStationId 7
config *.station[0].routerAddr "\"10.0.0.29\""
config *.station[0].serving "\"10.0.0.29\""
config *.station[1].mobility.latitude 28.652
config *.station[1].mobility.longitude 77.231
config *.station[1].cityName "\"Delhi\""
config *.station[1].groundStationId 11
config *.station[1].routerAddr "\"10.0.0.45\""
config *.station[1].serving "\"10.0.0.45\""
config *.station[2].mobility.latitude 25.35
config *.station[2].mobility.longitude 51.24
config *.station[2].cityName "\"Katar\""
config *.station[2].groundStationId 19
config *.station[2].routerAddr "\"10.0.0.77\""
config *.station[2].serving "\"10.0.0.77\""
config *.visualizer.canvasVisualizer.mediumVisualizer.typename ""
config *.visualizer.*.radioVisualizer.displayAntennaLobes true
config *.visualizer.*.dataLinkVisualizer.displayLinks true
config *.visualizer.*.mobilityVisualizer.displayMovementTrails true
config *.visualizer.*.mobilityVisualizer.movementTrailLineWidth 1
config *.visualizer.*.mobilityVisualizer.trailLength 3000
config **.ttxStart_max 30s
config **.ttxIdle_min 10s
config **.ttxIdle_max 25s
config **.Ntw 2
config **.Ntx 45
config **.ttwDuration 550s

vector 0 Florasat_Individual_Sats.satellite[0].dlkDSL.mac "Satellite Position when Repetition Received" ETV
vector 1 Florasat_Individual_Sats.satellite[0].dlkDSL.mac "Repetition Position for Node 283 at Satellite" ETV
vector 2 Florasat_Individual_Sats.satellite[0].dlkDSL.mac "All Nodes Repetition Generation Delay at Satellite" ETV
vector 3 Florasat_Individual_Sats.satellite[0].dlkDSL.mac "Repetition Generation Delay for Node 283 at Satellite" ETV
vector 4 Florasat_Individual_Sats.satellite[0].dlkDSL.mac "All Nodes Message Generation Delay at Satellite" ETV
vector 5 Florasat_Individual_Sats.satellite[0].dlkDSL.mac "Message Generation Delay for Node 283 at Satellite" ETV
vector 6 Florasat_Individual_Sats.satellite[0].net.packetHandler "packets received" ETV
vector 7 Florasat_Individual_Sats.satellite[0].net.packetHandler "dropped unroutable" ETV
vector 8 Florasat_Individual_Sats.satellite[0].net.packetHandler "packets dropped" ETV
vector 9 Florasat_Individual_Sats.satellite[0].dlkDSL.mac "Repetition Position for Node 358 at Satellite" ETV
vector 10 Florasat_Individual_Sats.satellite[0].dlkDSL.mac "Repetition Generation Delay for Node 358 at Satellite" ETV
vector 11 Florasat_Individual_Sats.satellite[0].dlkDSL.mac "Message Generation Delay for Node 358 at Satellite" ETV
vector 12 Florasat_Individual_Sats.satellite[0].dlkDSL.mac "Repetition Position for Node 73 at Satellite" ETV
vector 13 Florasat_Individual_Sats.satellite[0].dlkDSL.mac "Repetition Generation Delay for Node 73 at Satellite" ETV
vector 14 Florasat_Individual_Sats.satellite[0].dlkDSL.mac "Message Generation Delay for Node 73 at Satellite" ETV
vector 15 Florasat_Individual_Sats.satellite[0].dlkDSL.mac "Repetition Position for Node 88 at Satellite" ETV
vector 16 Florasat_Individual_Sats.satellite[0].dlkDSL.mac "Repetition Generation Delay for Node 88 at Satellite" ETV
vector 17 Florasat_Individual_Sats.satellite[0].dlkDSL.mac "Message Generation Delay for Node 88 at Satellite" ETV
vector 18 Florasat_Individual_Sats.satellite[0].dlkDSL.mac "Repetition Position for Node 313 at Satellite" ETV
vector 19 Florasat_Individual_Sats.satellite[0].dlkDSL.mac "Repetition Generation Delay for Node 313 at Satellite" ETV
vector 20 Florasat_Individual_Sats.satellite[0].dlkDSL.mac "Message Generation Delay for Node 313 at Satellite" ETV
vector 21 Florasat_Individual_Sats.satellite[0].dlkDSL.mac "Repetition Position for Node 328 at Satellite" ETV
vector 22 Florasat_Individual_Sats.satellite[0].dlkDSL.mac "Repetition Generation Delay for Node 328 at Satellite" ETV
vector 23 Florasat_Individual_Sats.satellite[0].dlkDSL.mac "Message Generation Delay for Node 328 at Satellite" ETV
vector 24 Florasat_Individual_Sats.satellite[0].dlkDSL.mac "Repetition Position for Node 58 at Satellite" ETV
vector 25 Florasat_Individual_Sats.satellite[0].dlkDSL.mac "Repetition Generation Delay for Node 58 at Satellite" ETV
vector 26 Florasat_Individual_Sats.satellite[0].dlkDSL.mac "Message Generation Delay for Node 58 at Satellite" ETV
vector 27 Florasat_Individual_Sats.satellite[0].dlkDSL.mac "Repetition Position for Node 193 at Satellite" ETV
vector 28 Florasat_Individual_Sats.satellite[0].dlkDSL.mac "Repetition Generation Delay for Node 193 at Satellite" ETV
vector 29 Florasat_Individual_Sats.satellite[0].dlkDSL.mac "Message Generation Delay for Node 193 at Satellite" ETV
vector 30 Florasat_Individual_Sats.satellite[0].dlkDSL.mac "Repetition Position for Node 343 at Satellite" ETV
vector 31 Florasat_Individual_Sats.satellite[0].dlkDSL.mac "Repetition Generation Delay for Node 343 at Satellite" ETV
vector 32 Florasat_Individual_Sats.satellite[0].dlkDSL.mac "Message Generation Delay for Node 343 at Satellite" ETV
vector 33 Florasat_Individual_Sats.satellite[0].dlkDSL.mac "Repetition Position for Node 118 at Satellite" ETV
vector 34 Florasat_Individual_Sats.satellite[0].dlkDSL.mac "Repetition Generation Delay for Node 118 at Satellite" ETV
vector 35 Florasat_Individual_Sats.satellite[0].dlkDSL.mac "Message Generation Delay for Node 118 at Satellite" ETV
vector 36 Florasat_Individual_Sats.satellite[0].dlkDSL.mac "Repetition Position for Node 268 at Satellite" ETV
vector 37 Florasat_Individual_Sats.satellite[0].dlkDSL.mac "Repetition Generation Delay for Node 268 at Satellite" ETV
vector 38 Florasat_Individual_Sats.satellite[0].dlkDSL.mac "Message Generation Delay for Node 268 at Satellite" ETV
vector 39 Florasat_Individual_Sats.satellite[0].dlkDSL.mac "Repetition Position for Node 238 at Satellite" ETV
vector 40 Florasat_Individual_Sats.satellite[0].dlkDSL.mac "Repetition Generation Delay for Node 238 at Satellite" ETV
vector 41 Florasat_Individual_Sats.satellite[0].dlkDSL.mac "Message Generation Delay for Node 238 at Satellite" ETV
vector 42 Florasat_Individual_Sats.satellite[0].dlkDSL.mac "Repetition Position for Node 103 at Satellite" ETV
vector 43 Florasat_Individual_Sats.satellite[0].dlkDSL.mac "Repetition Generation Delay for Node 103 at Satellite" ETV
vector 44 Florasat_Individual_Sats.satellite[0].dlkDSL.mac "Message Generation Delay for Node 103 at Satellite" ETV
vector 45 Florasat_Individual_Sats.satellite[0].dlkDSL.mac "Repetition Position for Node 433 at Satellite" ETV
vector 46 Florasat_Individual_Sats.satellite[0].dlkDSL.mac "Repetition Generation Delay for Node 433 at Satellite" ETV
vector 47 Florasat_Individual_Sats.satellite[0].dlkDSL.mac "Message Generation Delay for Node 433 at Satellite" ETV
vector 48 Florasat_Individual_Sats.satellite[0].dlkDSL.mac "Repetition Position for Node 208 at Satellite" ETV
vector 49 Florasat_Individual_Sats.satellite[0].dlkDSL.mac "Repetition Generation Delay for Node 208 at Satellite" ETV
vector 50 Florasat_Individual_Sats.satellite[0].dlkDSL.mac "Message Generation Delay for Node 208 at Satellite" ETV
vector 51 Florasat_Individual_Sats.satellite[0].dlkDSL.mac "Repetition Position for Node 133 at Satellite" ETV
vector 52 Florasat_Individual_Sats.satellite[0].dlkDSL.mac "Repetition Generation Delay for Node 133 at Satellite" ETV
vector 53 Florasat_Individual_Sats.satellite[0].dlkDSL.mac "Message Generation Delay for Node 133 at Satellite" ETV
vector 54 Florasat_Individual_Sats.satellite[0].dlkDSL.mac "Repetition Position for Node 388 at Satellite" ETV
vector 55 Florasat_Individual_Sats.satellite[0].dlkDSL.mac "Repetition Generation Delay for Node 388 at Satellite" ETV
vector 56 Florasat_Individual_Sats.satellite[0].dlkDSL.mac "Message Generation Delay for Node 388 at Satellite" ETV
vector 57 Florasat_Individual_Sats.satellite[0].dlkDSL.mac "Repetition Position for Node 418 at Satellite" ETV
vector 58 Florasat_Individual_Sats.satellite[0].dlkDSL.mac "Repetition Generation Delay for Node 418 at Satellite" ETV
vector 59 Florasat_Individual_Sats.satellite[0].dlkDSL.mac "Message Generation Delay for Node 418 at Satellite" ETV
vector 60 Florasat_Individual_Sats.satellite[0].dlkDSL.mac "Repetition Position for Node 373 at Satellite" ETV
vector 61 Florasat_Individual_Sats.satellite[0].dlkDSL.mac "Repetition Generation Delay for Node 373 at Satellite" ETV
vector 62 Florasat_Individual_Sats.satellite[0].dlkDSL.mac "Message Generation Delay for Node 373 at Satellite" ETV
vector 63 Florasat_Individual_Sats.satellite[0].dlkDSL.mac "Repetition Position for Node 223 at Satellite" ETV
vector 64 Florasat_Individual_Sats.satellite[0].dlkDSL.mac "Repetition Generation Delay for Node 223 at Satellite" ETV
vector 65 Florasat_Individual_Sats.satellite[0].dlkDSL.mac "Message Generation Delay for Node 223 at Satellite" ETV
vector 66 Florasat_Individual_Sats.satellite[0].dlkDSL.mac "Repetition Position for Node 253 at Satellite" ETV
vector 67 Florasat_Individual_Sats.satellite[0].dlkDSL.mac "Repetition Generation Delay for Node 253 at Satellite" ETV
vector 68 Florasat_Individual_Sats.satellite[0].dlkDSL.mac "Message Generation Delay for Node 253 at Satellite" ETV
vector 69 Florasat_Individual_Sats.satellite[0].dlkDSL.mac "Repetition Position for Node 403 at Satellite" ETV
vector 70 Florasat_Individual_Sats.satellite[0].dlkDSL.mac "Repetition Generation Delay for Node 403 at Satellite" ETV
vector 71 Florasat_Individual_Sats.satellite[0].dlkDSL.mac "Message Generation Delay for Node 403 at Satellite" ETV
vector 72 Florasat_Individual_Sats.satellite[0].dlkDSL.mac "Repetition Position for Node 298 at Satellite" ETV
vector 73 Florasat_Individual_Sats.satellite[0].dlkDSL.mac "Repetition Generation Delay for Node 298 at Satellite" ETV
vector 74 Florasat_Individual_Sats.satellite[0].dlkDSL.mac "Message Generation Delay for Node 298 at Satellite" ETV
vector 75 Florasat_Individual_Sats.satellite[0].dlkDSL.mac "Repetition Position for Node 148 at Satellite" ETV
vector 76 Florasat_Individual_Sats.satellite[0].dlkDSL.mac "Repetition Generation Delay for Node 148 at Satellite" ETV
vector 77 Florasat_Individual_Sats.satellite[0].dlkDSL.mac "Message Generation Delay for Node 148 at Satellite" ETV
vector 78 Florasat_Individual_Sats.satellite[0].dlkDSL.mac "Repetition Position for Node 493 at Satellite" ETV
vector 79 Florasat_Individual_Sats.satellite[0].dlkDSL.mac "Repetition Generation Delay for Node 493 at Satellite" ETV
vector 80 Florasat_Individual_Sats.satellite[0].dlkDSL.mac "Message Generation Delay for Node 493 at Satellite" ETV
vector 81 Florasat_Individual_Sats.satellite[0].dlkDSL.mac "Repetition Position for Node 163 at Satellite" ETV
vector 82 Florasat_Individual_Sats.satellite[0].dlkDSL.mac "Repetition Generation Delay for Node 163 at Satellite" ETV
vector 83 Florasat_Individual_Sats.satellite[0].dlkDSL.mac "Message Generation Delay for Node 163 at Satellite" ETV
vector 84 Florasat_Individual_Sats.satellite[0].dlkDSL.mac "Repetition Position for Node 178 at Satellite" ETV
vector 85 Florasat_Individual_Sats.satellite[0].dlkDSL.mac "Repetition Generation Delay for Node 178 at Satellite" ETV
vector 86 Florasat_Individual_Sats.satellite[0].dlkDSL.mac "Message Generation Delay for Node 178 at Satellite" ETV
vector 87 Florasat_Individual_Sats.satellite[0].dlkDSL.mac "Repetition Position for Node 478 at Satellite" ETV
vector 88 Florasat_Individual_Sats.satellite[0].dlkDSL.mac "Repetition Generation Delay for Node 478 at Satellite" ETV
vector 89 Florasat_Individual_Sats.satellite[0].dlkDSL.mac "Message Generation Delay for Node 478 at Satellite" ETV
0	154	8.53076672474	180
0	167	11.2048247571	180
0	186	13.19326571482	180
0	211	16.38968105488	180
0	230	18.71139786433	180
0	255	20.14148331474	180
0	368	30.86352227548	180
0	394	33.49742873166	180
0	405	34.82198492152	180
0	483	42.20434754951	180
0	500	43.03623350331	180
0	674	51.75612802378	180
0	750	60.75176081484	180
0	807	65.41218534804	180
0	820	66.00421997596	180
0	826	66.79283151113	180
0	876	71.50533489398	180
0	908	75.02334726685	180
0	916	76.08393738608	180
0	969	80.53317590028	180
0	1018	85.37991314888	180
0	1027	86.51413449197	180
0	1037	87.06168371479	180
0	1100	94.70925147975	180
0	1115	96.29802750767	180
0	1126	97.40158149683	180
0	1147	99.1129058978	180
0	1162	99.96035910205	180
0	1281	103.70462836525	180
0	1285	103.85242447354	180
0	1305	105.17490047256	180
0	1322	106.67018124232	180
0	1375	110.45096143492	180
0	1396	112.50558309469	180
0	1438	118.67846417804	180
0	1447	119.6976200118	180
0	1479	122.84461433993	180
0	1493	123.84374959105	180
0	1509	124.811245643	180
0	1517	125.85368379311	180
0	1521	126.33311509483	180
0	1565	129.25145664116	180
0	1580	130.34816605215	180
0	1595	131.38813760126	180
0	1607	132.94293995591	180
0	1628	136.25583714567	180
0	1645	138.68170014913	180
0	1671	140.08399180779	180
0	1697	141.8399792252	180
0	1713	142.73588378195	180
0	1718	142.95857315411	180
0	1723	143.23061641133	180
0	1757	146.35402750916	180
0	1761	146.50834412955	180
0	1771	148.02979865054	180
0	1901	152.37646542819	180
0	1908	153.76498410539	180
0	1938	157.23604588516	180
0	1943	157.96687661031	180
0	1970	161.26849688336	180
0	2009	163.18197609385	180
0	2021	164.4618535948	180
0	2036	165.74753631549	180
0	2051	166.80447730412	180
0	2056	166.92065919976	180
0	2077	168.54074735873	180
0	2081	168.64477292345	180
0	2090	170.09481586226	180
0	2097	170.75538530707	180
0	2180	179.16445246542	180
0	2195	180.93103760031	180
0	2201	181.17539113914	180
0	2214	182.61700923032	180
0	2218	182.93690331493	180
0	2234	185.28691350244	180
0	2244	185.92474099929	180
0	2254	186.21292497439	180
0	2264	186.6029188502	180
0	2290	189.75787413948	180
0	2305	190.57820854223	180
0	2353	194.7380219371	180
0	2357	194.85065226319	180
0	2397	198.18559598638	180
0	2416	199.16368494218	180
0	2447	200.88572044451	180
0	2572	205.06572738583	180
0	2598	206.86134638209	180
0	2617	207.93352973758	180
0	2629	208.50408522056	180
0	2633	208.9613636267	180
0	2657	213.4152498207	180
0	2670	215.55054968319	180
0	2684	217.35028551251	180
0	2704	217.92367241689	180
0	2719	219.29753255095	180
0	2727	219.7716089058	180
0	2765	222.0687727385	180
0	2778	223.37615542522	180
0	2793	224.47760587434	180
0	2797	224.51602963558	180
0	2811	226.44187488689	180
0	2819	226.93927058544	180
0	2837	229.85519566568	180
0	2870	231.7139712634	180
0	2878	232.000584586	180
0	2894	232.80059792279	180
0	2898	233.13572072417	180
0	2951	239.69567771413	180
0	2965	241.24358971831	180
0	2969	241.51294983906	180
0	2984	242.72688827887	180
0	2997	243.40250968447	180
0	3014	244.27960036848	180
0	3048	246.65555558975	180
0	3071	249.03417817645	180
0	3078	249.56292328718	180
0	3180	251.01020324153	180
0	3184	251.02946259177	180
0	3210	253.219557614	180
0	3223	253.69742640522	180
0	3227	253.81871786495	180
0	3233	254.66006598881	180
0	3245	256.57006234376	180
0	3260	258.36377712842	180
0	3284	262.9468707327	180
0	3298	264.3835052137	180
0	3304	265.93707776375	180
0	3321	267.22502531363	180
0	3352	271.74504400108	180
0	3361	272.32788718948	180
0	3372	273.17247672	180
0	3386	274.01617795339	180
0	3396	274.88366830805	180
0	3402	275.55310150355	180
0	3422	276.38260657196	180
0	3428	276.65672488338	180
0	3443	277.95965319841	180
0	3450	278.58623131507	180
0	3479	284.21355355977	180
0	3489	286.62149993917	180
0	3501	290.35864842534	180
0	3515	292.95232000121	180
0	3519	293.21054369423	180
0	3544	297.43760426986	180
0	3552	299.20829901801	180
0	3562	300.60895789641	180
0	3663	301.80643491857	180
0	3675	303.77567661636	180
0	3698	311.10649494631	180
0	3715	315.3927967883	180
0	3726	317.36923184576	180
0	3760	328.75674323158	180
0	3769	332.38809485798	180
0	3782	336.61876515233	180
0	3792	339.77038025371	180
0	3807	340.40001698763	180
0	3816	341.00303404326	180
0	3843	347.23079883089	180
0	3947	351.67759811383	180
0	3957	353.06060381993	180
0	3966	353.63576534895	180
0	3981	357.79639483656	180
0	3999	360.70504260478	180
0	4013	364.64653810249	180
0	4024	366.83771094986	180
0	4057	379.03441041572	180
0	4066	380.42584056145	180
0	4090	384.28032393781	180
0	4097	384.72974473322	180
0	4117	390.96152570091	180
0	4124	391.43469324212	180
0	4242	403.69668615161	180
0	4280	410.55342296366	180
0	4287	412.56081323896	180
0	4303	413.72543811908	180
0	4314	414.86912432421	180
0	4320	415.99661119378	180
0	4344	425.13724416491	180
0	4357	428.25104384547	180
0	4392	442.39613498387	180
0	4398	442.55231024228	180
0	4406	444.24236474188	180
0	4413	445.95119870132	180
0	4432	449.44526838946	180
0	4444	450.3776068449	180
0	4448	450.80748587326	180
0	4547	452.43889791603	180
0	4565	458.20967557249	180
0	4575	459.106257942	180
0	4582	459.86222601672	180
0	4615	470.85707027461	180
0	4619	471.01980496177	180
0	4632	472.95993609915	180
0	4662	478.90582320261	180
0	4666	478.99602107763	180
0	4675	481.54090923818	180
0	4698	489.13299556532	180
0	4702	489.37964803416	180
0	4724	493.86239995239	180
0	4733	495.57671964962	180
0	4756	499.96231214126	180
0	4764	500.87636201985	180
0	4862	502.38052642265	180
0	4882	508.40794083758	180
0	4890	508.78267886923	180
0	4894	509.28975678226	180
0	4903	511.31264074919	180
0	4955	530.88066437159	180
0	4964	532.8023017623	180
0	4986	543.35033852899	180
0	4995	544.57269999774	180
0	4999	544.84253481592	180
0	5162	551.51322560379	180
0	5181	559.14511394434	180
0	5194	563.71236024717	180
0	5210	569.83110147057	180
0	5245	576.8644363968	180
0	5249	577.11602038997	180
0	5255	577.75844666156	180
0	5270	580.5798949113	180
0	5277	581.06131477858	180
0	5288	584.04740733154	180
0	5326	593.05387915558	180
0	5460	608.00930727383	180
0	5492	612.86933881523	180
0	5510	616.7487382173	180
0	5515	617.07275663716	180
0	5531	620.35028814049	180
0	5561	625.31701461056	180
0	5572	626.95254968539	180
0	5580	627.2469518972	180
0	5585	627.87704583084	180
0	5596	629.7149353695	180
0	5610	632.55914880176	180
0	5620	635.69391766389	180
0	5640	636.46647100331	180
0	5647	636.96771791614	180
0	5656	637.75868606981	180
0	5678	641.23522126874	180
0	5689	643.51379235567	180
0	5696	644.51345541974	180
0	5724	647.71242159633	180
0	5740	649.92939401594	180
0	5748	650.89388953232	180
0	5857	654.98860005698	180
0	5869	657.43578158962	180
0	5881	661.01917958063	180
0	5900	664.06599435665	180
0	5911	665.74979307306	180
0	5919	667.18814031513	180
0	5943	670.76663358933	180
0	5952	672.40232922584	180
0	5977	678.95946133397	180
0	5985	680.24489588564	180
0	6033	689.32429259469	180
0	6050	692.31564441574	180
0	6059	693.15847485553	180
0	6079	699.84566847076	180
0	6217	708.45135696111	180
0	6233	710.65385151054	180
0	6265	718.67005841917	180
0	6319	726.83356297262	180
0	6328	727.64407695266	180
0	6337	729.46015806927	180
0	6392	739.79721224809	180
0	6416	743.52561045729	180
0	6426	745.80473525897	180
1	154	8.53076672474	180
1	1493	123.84374959105	180
1	2081	168.64477292345	180
1	2214	182.61700923032	180
1	2353	194.7380219371	180
1	2572	205.06572738583	180
1	2797	224.51602963558	180
1	3014	244.27960036848	180
1	4287	412.56081323896	180
1	4392	442.39613498387	180
1	4666	478.99602107763	180
1	4698	489.13299556532	180
1	4862	502.38052642265	180
1	4986	543.35033852899	180
1	5620	635.69391766389	180
1	5911	665.74979307306	180
1	6337	729.46015806927	180
1	6416	743.52561045729	180
2	154	8.53076672474	7.53076672474
2	167	11.2048247571	10.2048247571
2	186	13.19326571482	12.19326571482
2	211	16.38968105488	15.38968105488
2	230	18.71139786433	17.71139786433
2	255	20.14148331474	19.14148331474
2	368	30.86352227548	29.86352227548
2	394	33.49742873166	32.49742873166
2	405	34.82198492152	33.82198492152
2	483	42.20434754951	41.20434754951
2	500	43.03623350331	42.03623350331
2	674	51.75612802378	50.75612802378
2	750	60.75176081484	59.75176081484
2	807	65.41218534804	64.41218534804
2	820	66.00421997596	65.00421997596
2	826	66.79283151113	65.79283151113
2	876	71.50533489398	70.50533489398
2	908	75.02334726685	74.02334726685
2	916	76.08393738608	75.08393738608
2	969	80.53317590028	79.53317590028
2	1018	85.37991314888	84.37991314888
2	1027	86.51413449197	85.51413449197
2	1037	87.06168371479	86.06168371479
2	1100	94.70925147975	93.70925147975
2	1115	96.29802750767	95.29802750767
2	1126	97.40158149683	96.40158149683
2	1147	99.1129058978	98.1129058978
2	1162	99.96035910205	98.96035910205
2	1281	103.70462836525	102.70462836525
2	1285	103.85242447354	102.85242447354
2	1305	105.17490047256	104.17490047256
2	1322	106.67018124232	105.67018124232
2	1375	110.45096143492	109.45096143492
2	1396	112.50558309469	111.50558309469
2	1438	118.67846417804	117.67846417804
2	1447	119.6976200118	118.6976200118
2	1479	122.84461433993	121.84461433993
2	1493	123.84374959105	122.84374959105
2	1509	124.811245643	123.811245643
2	1517	125.85368379311	124.85368379311
2	1521	126.33311509483	125.33311509483
2	1565	129.25145664116	128.25145664116
2	1580	130.34816605215	129.34816605215
2	1595	131.38813760126	130.38813760126
2	1607	132.94293995591	131.94293995591
2	1628	136.25583714567	135.25583714567
2	1645	138.68170014913	137.68170014913
2	1671	140.08399180779	139.08399180779
2	1697	141.8399792252	140.8399792252
2	1713	142.73588378195	141.73588378195
2	1718	142.95857315411	141.95857315411
2	1723	143.23061641133	142.23061641133
2	1757	146.35402750916	145.35402750916
2	1761	146.50834412955	145.50834412955
2	1771	148.02979865054	147.02979865054
2	1901	152.37646542819	151.37646542819
2	1908	153.76498410539	152.76498410539
2	1938	157.23604588516	156.23604588516
2	1943	157.96687661031	156.96687661031
2	1970	161.26849688336	160.26849688336
2	2009	163.18197609385	162.18197609385
2	2021	164.4618535948	163.4618535948
2	2036	165.74753631549	164.74753631549
2	2051	166.80447730412	165.80447730412
2	2056	166.92065919976	165.92065919976
2	2077	168.54074735873	167.54074735873
2	2081	168.64477292345	167.64477292345
2	2090	170.09481586226	169.09481586226
2	2097	170.75538530707	169.75538530707
2	2180	179.16445246542	178.16445246542
2	2195	180.93103760031	179.93103760031
2	2201	181.17539113914	180.17539113914
2	2214	182.61700923032	181.61700923032
2	2218	182.93690331493	181.93690331493
2	2234	185.28691350244	184.28691350244
2	2244	185.92474099929	184.92474099929
2	2254	186.21292497439	185.21292497439
2	2264	186.6029188502	185.6029188502
2	2290	189.75787413948	188.75787413948
2	2305	190.57820854223	189.57820854223
2	2353	194.7380219371	193.7380219371
2	2357	194.85065226319	193.85065226319
2	2397	198.18559598638	197.18559598638
2	2416	199.16368494218	198.16368494218
2	2447	200.88572044451	199.88572044451
2	2572	205.06572738583	204.06572738583
2	2598	206.86134638209	205.86134638209
2	2617	207.93352973758	206.93352973758
2	2629	208.50408522056	207.50408522056
2	2633	208.9613636267	207.9613636267
2	2657	213.4152498207	212.4152498207
2	2670	215.55054968319	214.55054968319
2	2684	217.35028551251	216.35028551251
2	2704	217.92367241689	216.92367241689
2	2719	219.29753255095	218.29753255095
2	2727	219.7716089058	218.7716089058
2	2765	222.0687727385	221.0687727385
2	2778	223.37615542522	222.37615542522
2	2793	224.47760587434	223.47760587434
2	2797	224.51602963558	223.51602963558
2	2811	226.44187488689	225.44187488689
2	2819	226.93927058544	225.93927058544
2	2837	229.85519566568	228.85519566568
2	2870	231.7139712634	230.7139712634
2	2878	232.000584586	231.000584586
2	2894	232.80059792279	231.80059792279
2	2898	233.13572072417	232.13572072417
2	2951	239.69567771413	238.69567771413
2	2965	241.24358971831	240.24358971831
2	2969	241.51294983906	240.51294983906
2	2984	242.72688827887	241.72688827887
2	2997	243.40250968447	242.40250968447
2	3014	244.27960036848	243.27960036848
2	3048	246.65555558975	245.65555558975
2	3071	249.03417817645	248.03417817645
2	3078	249.56292328718	248.56292328718
2	3180	251.01020324153	250.01020324153
2	3184	251.02946259177	250.02946259177
2	3210	253.219557614	252.219557614
2	3223	253.69742640522	252.69742640522
2	3227	253.81871786495	252.81871786495
2	3233	254.66006598881	253.66006598881
2	3245	256.57006234376	255.57006234376
2	3260	258.36377712842	257.36377712842
2	3284	262.9468707327	261.9468707327
2	3298	264.3835052137	263.3835052137
2	3304	265.93707776375	264.93707776375
2	3321	267.22502531363	266.22502531363
2	3352	271.74504400108	270.74504400108
2	3361	272.32788718948	271.32788718948
2	3372	273.17247672	272.17247672
2	3386	274.01617795339	273.01617795339
2	3396	274.88366830805	273.88366830805
2	3402	275.55310150355	274.55310150355
2	3422	276.38260657196	275.38260657196
2	3428	276.65672488338	275.65672488338
2	3443	277.95965319841	276.95965319841
2	3450	278.58623131507	277.58623131507
2	3479	284.21355355977	283.21355355977
2	3489	286.62149993917	285.62149993917
2	3501	290.35864842534	289.35864842534
2	3515	292.95232000121	291.95232000121
2	3519	293.21054369423	292.21054369423
2	3544	297.43760426986	296.43760426986
2	3552	299.20829901801	298.20829901801
2	3562	300.60895789641	299.60895789641
2	3663	301.80643491857	300.80643491857
2	3675	303.77567661636	302.77567661636
2	3698	311.10649494631	310.10649494631
2	3715	315.3927967883	314.3927967883
2	3726	317.36923184576	316.36923184576
2	3760	328.75674323158	327.75674323158
2	3769	332.38809485798	331.38809485798
2	3782	336.61876515233	335.61876515233
2	3792	339.77038025371	338.77038025371
2	3807	340.40001698763	339.40001698763
2	3816	341.00303404326	340.00303404326
2	3843	347.23079883089	346.23079883089
2	3947	351.67759811383	350.67759811383
2	3957	353.06060381993	352.06060381993
2	3966	353.63576534895	352.63576534895
2	3981	357.79639483656	356.79639483656
2	3999	360.70504260478	359.70504260478
2	4013	364.64653810249	363.64653810249
2	4024	366.83771094986	365.83771094986
2	4057	379.03441041572	378.03441041572
2	4066	380.42584056145	379.42584056145
2	4090	384.28032393781	383.28032393781
2	4097	384.72974473322	383.72974473322
2	4117	390.96152570091	389.96152570091
2	4124	391.43469324212	390.43469324212
2	4242	403.69668615161	402.69668615161
2	4280	410.55342296366	409.55342296366
2	4287	412.56081323896	411.56081323896
2	4303	413.72543811908	412.72543811908
2	4314	414.86912432421	413.86912432421
2	4320	415.99661119378	414.99661119378
2	4344	425.13724416491	424.13724416491
2	4357	428.25104384547	427.25104384547
2	4392	442.39613498387	441.39613498387
2	4398	442.55231024228	441.55231024228
2	4406	444.24236474188	443.24236474188
2	4413	445.95119870132	444.95119870132
2	4432	449.44526838946	448.44526838946
2	4444	450.3776068449	449.3776068449
2	4448	450.80748587326	449.80748587326
2	4547	452.43889791603	451.43889791603
2	4565	458.20967557249	457.20967557249
2	4575	459.106257942	458.106257942
2	4582	459.86222601672	458.86222601672
2	4615	470.85707027461	469.85707027461
2	4619	471.01980496177	470.01980496177
2	4632	472.95993609915	471.95993609915
2	4662	478.90582320261	477.90582320261
2	4666	478.99602107763	477.99602107763
2	4675	481.54090923818	480.54090923818
2	4698	489.13299556532	488.13299556532
2	4702	489.37964803416	488.37964803416
2	4724	493.86239995239	492.86239995239
2	4733	495.57671964962	494.57671964962
2	4756	499.96231214126	498.96231214126
2	4764	500.87636201985	499.87636201985
2	4862	502.38052642265	501.38052642265
2	4882	508.40794083758	507.40794083758
2	4890	508.78267886923	507.78267886923
2	4894	509.28975678226	508.28975678226
2	4903	511.31264074919	510.31264074919
2	4955	530.88066437159	529.88066437159
2	4964	532.8023017623	531.8023017623
2	4986	543.35033852899	542.35033852899
2	4995	544.57269999774	543.57269999774
2	4999	544.84253481592	543.84253481592
2	5162	551.51322560379	550.51322560379
2	5181	559.14511394434	558.14511394434
2	5194	563.71236024717	562.71236024717
2	5210	569.83110147057	568.83110147057
2	5245	576.8644363968	575.8644363968
2	5249	577.11602038997	576.11602038997
2	5255	577.75844666156	576.75844666156
2	5270	580.5798949113	579.5798949113
2	5277	581.06131477858	580.06131477858
2	5288	584.04740733154	583.04740733154
2	5326	593.05387915558	592.05387915558
2	5460	608.00930727383	607.00930727383
2	5492	612.86933881523	611.86933881523
2	5510	616.7487382173	615.7487382173
2	5515	617.07275663716	616.07275663716
2	5531	620.35028814049	619.35028814049
2	5561	625.31701461056	624.31701461056
2	5572	626.95254968539	625.95254968539
2	5580	627.2469518972	626.2469518972
2	5585	627.87704583084	626.87704583084
2	5596	629.7149353695	628.7149353695
2	5610	632.55914880176	631.55914880176
2	5620	635.69391766389	634.69391766389
2	5640	636.46647100331	635.46647100331
2	5647	636.96771791614	635.96771791614
2	5656	637.75868606981	636.75868606981
2	5678	641.23522126874	640.23522126874
2	5689	643.51379235567	642.51379235567
2	5696	644.51345541974	643.51345541974
2	5724	647.71242159633	646.71242159633
2	5740	649.92939401594	648.92939401594
2	5748	650.89388953232	649.89388953232
2	5857	654.98860005698	653.98860005698
2	5869	657.43578158962	656.43578158962
2	5881	661.01917958063	660.01917958063
2	5900	664.06599435665	663.06599435665
2	5911	665.74979307306	664.74979307306
2	5919	667.18814031513	666.18814031513
2	5943	670.76663358933	669.76663358933
2	5952	672.40232922584	671.40232922584
2	5977	678.95946133397	677.95946133397
2	5985	680.24489588564	679.24489588564
2	6033	689.32429259469	688.32429259469
2	6050	692.31564441574	691.31564441574
2	6059	693.15847485553	692.15847485553
2	6079	699.84566847076	698.84566847076
2	6217	708.45135696111	707.45135696111
2	6233	710.65385151054	709.65385151054
2	6265	718.67005841917	717.67005841917
2	6319	726.83356297262	725.83356297262
2	6328	727.64407695266	726.64407695266
2	6337	729.46015806927	728.46015806927
2	6392	739.79721224809	738.79721224809
2	6416	743.52561045729	742.52561045729
2	6426	745.80473525897	744.80473525897
3	154	8.53076672474	7.53076672474
3	1493	123.84374959105	122.84374959105
3	2081	168.64477292345	167.64477292345
3	2214	182.61700923032	181.61700923032
3	2353	194.7380219371	193.7380219371
3	2572	205.06572738583	204.06572738583
3	2797	224.51602963558	223.51602963558
3	3014	244.27960036848	243.27960036848
3	4287	412.56081323896	411.56081323896
3	4392	442.39613498387	441.39613498387
3	4666	478.99602107763	477.99602107763
3	4698	489.13299556532	488.13299556532
3	4862	502.38052642265	501.38052642265
3	4986	543.35033852899	542.35033852899
3	5620	635.69391766389	634.69391766389
3	5911	665.74979307306	664.74979307306
3	6337	729.46015806927	728.46015806927
3	6416	743.52561045729	742.52561045729
4	154	8.53076672474	7.53076672474
4	167	11.2048247571	10.2048247571
4	186	13.19326571482	12.19326571482
4	211	16.38968105488	15.38968105488
4	230	18.71139786433	17.71139786433
4	255	20.14148331474	19.14148331474
4	368	30.86352227548	29.86352227548
4	405	34.82198492152	33.82198492152
4	483	42.20434754951	41.20434754951
4	916	76.08393738608	75.08393738608
4	1018	85.37991314888	84.37991314888
4	1115	96.29802750767	95.29802750767
4	1281	103.70462836525	102.70462836525
4	1285	103.85242447354	102.85242447354
4	1396	112.50558309469	111.50558309469
4	1479	122.84461433993	121.84461433993
4	1628	136.25583714567	135.25583714567
4	1671	140.08399180779	139.08399180779
4	1713	142.73588378195	141.73588378195
4	1723	143.23061641133	142.23061641133
4	1761	146.50834412955	145.50834412955
4	2617	207.93352973758	206.93352973758
4	2670	215.55054968319	214.55054968319
4	3352	271.74504400108	270.74504400108
4	3489	286.62149993917	285.62149993917
4	4117	390.96152570091	389.96152570091
4	4764	500.87636201985	499.87636201985
4	4894	509.28975678226	508.28975678226
5	154	8.53076672474	7.53076672474
6	155	8.53076672474	1
6	168	11.2048247571	2
6	187	13.19326571482	3
6	212	16.38968105488	4
6	231	18.71139786433	5
6	256	20.14148331474	6
6	369	30.86352227548	7
6	395	33.49742873166	8
6	406	34.82198492152	9
6	484	42.20434754951	10
6	501	43.03623350331	11
6	675	51.75612802378	12
6	751	60.75176081484	13
6	808	65.41218534804	14
6	821	66.00421997596	15
6	827	66.79283151113	16
6	877	71.50533489398	17
6	909	75.02334726685	18
6	917	76.08393738608	19
6	970	80.53317590028	20
6	1019	85.37991314888	21
6	1028	86.51413449197	22
6	1038	87.06168371479	23
6	1101	94.70925147975	24
6	1116	96.29802750767	25
6	1127	97.40158149683	26
6	1148	99.1129058978	27
6	1163	99.96035910205	28
6	1282	103.70462836525	29
6	1286	103.85242447354	30
6	1306	105.17490047256	31
6	1323	106.67018124232	32
6	1376	110.45096143492	33
6	1397	112.50558309469	34
6	1439	118.67846417804	35
6	1448	119.6976200118	36
6	1480	122.84461433993	37
6	1494	123.84374959105	38
6	1510	124.811245643	39
6	1518	125.85368379311	40
6	1522	126.33311509483	41
6	1566	129.25145664116	42
6	1581	130.34816605215	43
6	1596	131.38813760126	44
6	1608	132.94293995591	45
6	1629	136.25583714567	46
6	1646	138.68170014913	47
6	1672	140.08399180779	48
6	1698	141.8399792252	49
6	1714	142.73588378195	50
6	1719	142.95857315411	51
6	1724	143.23061641133	52
6	1758	146.35402750916	53
6	1762	146.50834412955	54
6	1772	148.02979865054	55
6	1902	152.37646542819	56
6	1909	153.76498410539	57
6	1939	157.23604588516	58
6	1944	157.96687661031	59
6	1971	161.26849688336	60
6	2010	163.18197609385	61
6	2022	164.4618535948	62
6	2037	165.74753631549	63
6	2052	166.80447730412	64
6	2057	166.92065919976	65
6	2078	168.54074735873	66
6	2082	168.64477292345	67
6	2091	170.09481586226	68
6	2098	170.75538530707	69
6	2181	179.16445246542	70
6	2196	180.93103760031	71
6	2202	181.17539113914	72
6	2215	182.61700923032	73
6	2219	182.93690331493	74
6	2235	185.28691350244	75
6	2245	185.92474099929	76
6	2255	186.21292497439	77
6	2265	186.6029188502	78
6	2291	189.75787413948	79
6	2306	190.57820854223	80
6	2354	194.7380219371	81
6	2358	194.85065226319	82
6	2398	198.18559598638	83
6	2417	199.16368494218	84
6	2448	200.88572044451	85
6	2573	205.06572738583	86
6	2599	206.86134638209	87
6	2618	207.93352973758	88
6	2630	208.50408522056	89
6	2634	208.9613636267	90
6	2658	213.4152498207	91
6	2671	215.55054968319	92
6	2685	217.35028551251	93
6	2705	217.92367241689	94
6	2720	219.29753255095	95
6	2728	219.7716089058	96
6	2766	222.0687727385	97
6	2779	223.37615542522	98
6	2794	224.47760587434	99
6	2798	224.51602963558	100
6	2812	226.44187488689	101
6	2820	226.93927058544	102
6	2838	229.85519566568	103
6	2871	231.7139712634	104
6	2879	232.000584586	105
6	2895	232.80059792279	106
6	2899	233.13572072417	107
6	2952	239.69567771413	108
6	2966	241.24358971831	109
6	2970	241.51294983906	110
6	2985	242.72688827887	111
6	2998	243.40250968447	112
6	3015	244.27960036848	113
6	3049	246.65555558975	114
6	3072	249.03417817645	115
6	3079	249.56292328718	116
6	3181	251.01020324153	117
6	3185	251.02946259177	118
6	3211	253.219557614	119
6	3224	253.69742640522	120
6	3228	253.81871786495	121
6	3234	254.66006598881	122
6	3246	256.57006234376	123
6	3261	258.36377712842	124
6	3285	262.9468707327	125
6	3299	264.3835052137	126
6	3305	265.93707776375	127
6	3322	267.22502531363	128
6	3353	271.74504400108	129
6	3362	272.32788718948	130
6	3373	273.17247672	131
6	3387	274.01617795339	132
6	3397	274.88366830805	133
6	3403	275.55310150355	134
6	3423	276.38260657196	135
6	3429	276.65672488338	136
6	3444	277.95965319841	137
6	3451	278.58623131507	138
6	3480	284.21355355977	139
6	3490	286.62149993917	140
6	3502	290.35864842534	141
6	3516	292.95232000121	142
6	3520	293.21054369423	143
6	3545	297.43760426986	144
6	3553	299.20829901801	145
6	3563	300.60895789641	146
6	3664	301.80643491857	147
6	3676	303.77567661636	148
6	3699	311.10649494631	149
6	3716	315.3927967883	150
6	3727	317.36923184576	151
6	3761	328.75674323158	152
6	3770	332.38809485798	153
6	3783	336.61876515233	154
6	3793	339.77038025371	155
6	3808	340.40001698763	156
6	3817	341.00303404326	157
6	3844	347.23079883089	158
6	3948	351.67759811383	159
6	3958	353.06060381993	160
6	3967	353.63576534895	161
6	3982	357.79639483656	162
6	4000	360.70504260478	163
6	4014	364.64653810249	164
6	4025	366.83771094986	165
6	4058	379.03441041572	166
6	4067	380.42584056145	167
6	4091	384.28032393781	168
6	4098	384.72974473322	169
6	4118	390.96152570091	170
6	4125	391.43469324212	171
6	4243	403.69668615161	172
6	4281	410.55342296366	173
6	4288	412.56081323896	174
6	4304	413.72543811908	175
6	4315	414.86912432421	176
6	4321	415.99661119378	177
6	4345	425.13724416491	178
6	4358	428.25104384547	179
6	4393	442.39613498387	180
6	4399	442.55231024228	181
6	4407	444.24236474188	182
6	4414	445.95119870132	183
6	4433	449.44526838946	184
6	4445	450.3776068449	185
6	4449	450.80748587326	186
6	4548	452.43889791603	187
6	4566	458.20967557249	188
6	4576	459.106257942	189
6	4583	459.86222601672	190
6	4616	470.85707027461	191
6	4620	471.01980496177	192
6	4633	472.95993609915	193
6	4663	478.90582320261	194
6	4667	478.99602107763	195
6	4676	481.54090923818	196
6	4699	489.13299556532	197
6	4703	489.37964803416	198
6	4725	493.86239995239	199
6	4734	495.57671964962	200
6	4757	499.96231214126	201
6	4765	500.87636201985	202
6	4863	502.38052642265	203
6	4883	508.40794083758	204
6	4891	508.78267886923	205
6	4895	509.28975678226	206
6	4904	511.31264074919	207
6	4956	530.88066437159	208
6	4965	532.8023017623	209
6	4987	543.35033852899	210
6	4996	544.57269999774	211
6	5000	544.84253481592	212
6	5163	551.51322560379	213
6	5182	559.14511394434	214
6	5195	563.71236024717	215
6	5211	569.83110147057	216
6	5246	576.8644363968	217
6	5250	577.11602038997	218
6	5256	577.75844666156	219
6	5271	580.5798949113	220
6	5278	581.06131477858	221
6	5289	584.04740733154	222
6	5327	593.05387915558	223
6	5461	608.00930727383	224
6	5493	612.86933881523	225
6	5511	616.7487382173	226
6	5516	617.07275663716	227
6	5532	620.35028814049	228
6	5562	625.31701461056	229
6	5573	626.95254968539	230
6	5581	627.2469518972	231
6	5586	627.87704583084	232
6	5597	629.7149353695	233
6	5611	632.55914880176	234
6	5621	635.69391766389	235
6	5641	636.46647100331	236
6	5648	636.96771791614	237
6	5657	637.75868606981	238
6	5679	641.23522126874	239
6	5690	643.51379235567	240
6	5697	644.51345541974	241
6	5725	647.71242159633	242
6	5741	649.92939401594	243
6	5749	650.89388953232	244
6	5858	654.98860005698	245
6	5870	657.43578158962	246
6	5882	661.01917958063	247
6	5901	664.06599435665	248
6	5912	665.74979307306	249
6	5920	667.18814031513	250
6	5944	670.76663358933	251
6	5953	672.40232922584	252
6	5978	678.95946133397	253
6	5986	680.24489588564	254
6	6034	689.32429259469	255
6	6051	692.31564441574	256
6	6060	693.15847485553	257
6	6080	699.84566847076	258
6	6218	708.45135696111	259
6	6234	710.65385151054	260
6	6266	718.67005841917	261
6	6320	726.83356297262	262
6	6329	727.64407695266	263
6	6338	729.46015806927	264
6	6393	739.79721224809	265
6	6417	743.52561045729	266
6	6427	745.80473525897	267
7	155	8.53076672474	1
7	168	11.2048247571	2
7	187	13.19326571482	3
7	212	16.38968105488	4
7	231	18.71139786433	5
7	256	20.14148331474	6
7	369	30.86352227548	7
7	395	33.49742873166	8
7	406	34.82198492152	9
7	484	42.20434754951	10
7	501	43.03623350331	11
7	675	51.75612802378	12
7	751	60.75176081484	13
7	808	65.41218534804	14
7	821	66.00421997596	15
7	827	66.79283151113	16
7	877	71.50533489398	17
7	909	75.02334726685	18
7	917	76.08393738608	19
7	970	80.53317590028	20
7	1019	85.37991314888	21
7	1028	86.51413449197	22
7	1038	87.06168371479	23
7	1101	94.70925147975	24
7	1116	96.29802750767	25
7	1127	97.40158149683	26
7	1148	99.1129058978	27
7	1163	99.96035910205	28
7	1282	103.70462836525	29
7	1286	103.85242447354	30
7	1306	105.17490047256	31
7	1323	106.67018124232	32
7	1376	110.45096143492	33
7	1397	112.50558309469	34
7	1439	118.67846417804	35
7	1448	119.6976200118	36
7	1480	122.84461433993	37
7	1494	123.84374959105	38
7	1510	124.811245643	39
7	1518	125.85368379311	40
7	1522	126.33311509483	41
7	1566	129.25145664116	42
7	1581	130.34816605215	43
7	1596	131.38813760126	44
7	1608	132.94293995591	45
7	1629	136.25583714567	46
7	1646	138.68170014913	47
7	1672	140.08399180779	48
7	1698	141.8399792252	49
7	1714	142.73588378195	50
7	1719	142.95857315411	51
7	1724	143.23061641133	52
7	1758	146.35402750916	53
7	1762	146.50834412955	54
7	1772	148.02979865054	55
7	1902	152.37646542819	56
7	1909	153.76498410539	57
7	1939	157.23604588516	58
7	1944	157.96687661031	59
7	1971	161.26849688336	60
7	2010	163.18197609385	61
7	2022	164.4618535948	62
7	2037	165.74753631549	63
7	2052	166.80447730412	64
7	2057	166.92065919976	65
7	2078	168.54074735873	66
7	2082	168.64477292345	67
7	2091	170.09481586226	68
7	2098	170.75538530707	69
7	2181	179.16445246542	70
7	2196	180.93103760031	71
7	2202	181.17539113914	72
7	2215	182.61700923032	73
7	2219	182.93690331493	74
7	2235	185.28691350244	75
7	2245	185.92474099929	76
7	2255	186.21292497439	77
7	2265	186.6029188502	78
7	2291	189.75787413948	79
7	2306	190.57820854223	80
7	2354	194.7380219371	81
7	2358	194.85065226319	82
7	2398	198.18559598638	83
7	2417	199.16368494218	84
7	2448	200.88572044451	85
7	2573	205.06572738583	86
7	2599	206.86134638209	87
7	2618	207.93352973758	88
7	2630	208.50408522056	89
7	2634	208.9613636267	90
7	2658	213.4152498207	91
7	2671	215.55054968319	92
7	2685	217.35028551251	93
7	2705	217.92367241689	94
7	2720	219.29753255095	95
7	2728	219.7716089058	96
7	2766	222.0687727385	97
7	2779	223.37615542522	98
7	2794	224.47760587434	99
7	2798	224.51602963558	100
7	2812	226.44187488689	101
7	2820	226.93927058544	102
7	2838	229.85519566568	103
7	2871	231.7139712634	104
7	2879	232.000584586	105
7	2895	232.80059792279	106
7	2899	233.13572072417	107
7	2952	239.69567771413	108
7	2966	241.24358971831	109
7	2970	241.51294983906	110
7	2985	242.72688827887	111
7	2998	243.40250968447	112
7	3015	244.27960036848	113
7	3049	246.65555558975	114
7	3072	249.03417817645	115
7	3079	249.56292328718	116
7	3181	251.01020324153	117
7	3185	251.02946259177	118
7	3211	253.219557614	119
7	3224	253.69742640522	120
7	3228	253.81871786495	121
7	3234	254.66006598881	122
7	3246	256.57006234376	123
7	3261	258.36377712842	124
7	3285	262.9468707327	125
7	3299	264.3835052137	126
7	3305	265.93707776375	127
7	3322	267.22502531363	128
7	3353	271.74504400108	129
7	3362	272.32788718948	130
7	3373	273.17247672	131
7	3387	274.01617795339	132
7	3397	274.88366830805	133
7	3403	275.55310150355	134
7	3423	276.38260657196	135
7	3429	276.65672488338	136
7	3444	277.95965319841	137
7	3451	278.58623131507	138
7	3480	284.21355355977	139
7	3490	286.62149993917	140
7	3502	290.35864842534	141
7	3516	292.95232000121	142
7	3520	293.21054369423	143
7	3545	297.43760426986	144
7	3553	299.20829901801	145
7	3563	300.60895789641	146
7	3664	301.80643491857	147
7	3676	303.77567661636	148
7	3699	311.10649494631	149
7	3716	315.3927967883	150
7	3727	317.36923184576	151
7	3761	328.75674323158	152
7	3770	332.38809485798	153
7	3783	336.61876515233	154
7	3793	339.77038025371	155
7	3808	340.40001698763	156
7	3817	341.00303404326	157
7	3844	347.23079883089	158
7	3948	351.67759811383	159
7	3958	353.06060381993	160
7	3967	353.63576534895	161
7	3982	357.79639483656	162
7	4000	360.70504260478	163
7	4014	364.64653810249	164
7	4025	366.83771094986	165
7	4058	379.03441041572	166
7	4067	380.42584056145	167
7	4091	384.28032393781	168
7	4098	384.72974473322	169
7	4118	390.96152570091	170
7	4125	391.43469324212	171
7	4243	403.69668615161	172
7	4281	410.55342296366	173
7	4288	412.56081323896	174
7	4304	413.72543811908	175
7	4315	414.86912432421	176
7	4321	415.99661119378	177
7	4345	425.13724416491	178
7	4358	428.25104384547	179
7	4393	442.39613498387	180
7	4399	442.55231024228	181
7	4407	444.24236474188	182
7	4414	445.95119870132	183
7	4433	449.44526838946	184
7	4445	450.3776068449	185
7	4449	450.80748587326	186
7	4548	452.43889791603	187
7	4566	458.20967557249	188
7	4576	459.106257942	189
7	4583	459.86222601672	190
7	4616	470.85707027461	191
7	4620	471.01980496177	192
7	4633	472.95993609915	193
7	4663	478.90582320261	194
7	4667	478.99602107763	195
7	4676	481.54090923818	196
7	4699	489.13299556532	197
7	4703	489.37964803416	198
7	4725	493.86239995239	199
7	4734	495.57671964962	200
7	4757	499.96231214126	201
7	4765	500.87636201985	202
7	4863	502.38052642265	203
7	4883	508.40794083758	204
7	4891	508.78267886923	205
7	4895	509.28975678226	206
7	4904	511.31264074919	207
7	4956	530.88066437159	208
7	4965	532.8023017623	209
7	4987	543.35033852899	210
7	4996	544.57269999774	211
7	5000	544.84253481592	212
7	5163	551.51322560379	213
7	5182	559.14511394434	214
7	5195	563.71236024717	215
7	5211	569.83110147057	216
7	5246	576.8644363968	217
7	5250	577.11602038997	218
7	5256	577.75844666156	219
7	5271	580.5798949113	220
7	5278	581.06131477858	221
7	5289	584.04740733154	222
7	5327	593.05387915558	223
7	5461	608.00930727383	224
7	5493	612.86933881523	225
7	5511	616.7487382173	226
7	5516	617.07275663716	227
7	5532	620.35028814049	228
7	5562	625.31701461056	229
7	5573	626.95254968539	230
7	5581	627.2469518972	231
7	5586	627.87704583084	232
7	5597	629.7149353695	233
7	5611	632.55914880176	234
7	5621	635.69391766389	235
7	5641	636.46647100331	236
7	5648	636.96771791614	237
7	5657	637.75868606981	238
7	5679	641.23522126874	239
7	5690	643.51379235567	240
7	5697	644.51345541974	241
7	5725	647.71242159633	242
7	5741	649.92939401594	243
7	5749	650.89388953232	244
7	5858	654.98860005698	245
7	5870	657.43578158962	246
7	5882	661.01917958063	247
7	5901	664.06599435665	248
7	5912	665.74979307306	249
7	5920	667.18814031513	250
7	5944	670.76663358933	251
7	5953	672.40232922584	252
7	5978	678.95946133397	253
7	5986	680.24489588564	254
7	6034	689.32429259469	255
7	6051	692.31564441574	256
7	6060	693.15847485553	257
7	6080	699.84566847076	258
7	6218	708.45135696111	259
7	6234	710.65385151054	260
7	6266	718.67005841917	261
7	6320	726.83356297262	262
7	6329	727.64407695266	263
7	6338	729.46015806927	264
7	6393	739.79721224809	265
7	6417	743.52561045729	266
7	6427	745.80473525897	267
8	155	8.53076672474	1
8	168	11.2048247571	2
8	187	13.19326571482	3
8	212	16.38968105488	4
8	231	18.71139786433	5
8	256	20.14148331474	6
8	369	30.86352227548	7
8	395	33.49742873166	8
8	406	34.82198492152	9
8	484	42.20434754951	10
8	501	43.03623350331	11
8	675	51.75612802378	12
8	751	60.75176081484	13
8	808	65.41218534804	14
8	821	66.00421997596	15
8	827	66.79283151113	16
8	877	71.50533489398	17
8	909	75.02334726685	18
8	917	76.08393738608	19
8	970	80.53317590028	20
8	1019	85.37991314888	21
8	1028	86.51413449197	22
8	1038	87.06168371479	23
8	1101	94.70925147975	24
8	1116	96.29802750767	25
8	1127	97.40158149683	26
8	1148	99.1129058978	27
8	1163	99.96035910205	28
8	1282	103.70462836525	29
8	1286	103.85242447354	30
8	1306	105.17490047256	31
8	1323	106.67018124232	32
8	1376	110.45096143492	33
8	1397	112.50558309469	34
8	1439	118.67846417804	35
8	1448	119.6976200118	36
8	1480	122.84461433993	37
8	1494	123.84374959105	38
8	1510	124.811245643	39
8	1518	125.85368379311	40
8	1522	126.33311509483	41
8	1566	129.25145664116	42
8	1581	130.34816605215	43
8	1596	131.38813760126	44
8	1608	132.94293995591	45
8	1629	136.25583714567	46
8	1646	138.68170014913	47
8	1672	140.08399180779	48
8	1698	141.8399792252	49
8	1714	142.73588378195	50
8	1719	142.95857315411	51
8	1724	143.23061641133	52
8	1758	146.35402750916	53
8	1762	146.50834412955	54
8	1772	148.02979865054	55
8	1902	152.37646542819	56
8	1909	153.76498410539	57
8	1939	157.23604588516	58
8	1944	157.96687661031	59
8	1971	161.26849688336	60
8	2010	163.18197609385	61
8	2022	164.4618535948	62
8	2037	165.74753631549	63
8	2052	166.80447730412	64
8	2057	166.92065919976	65
8	2078	168.54074735873	66
8	2082	168.64477292345	67
8	2091	170.09481586226	68
8	2098	170.75538530707	69
8	2181	179.16445246542	70
8	2196	180.93103760031	71
8	2202	181.17539113914	72
8	2215	182.61700923032	73
8	2219	182.93690331493	74
8	2235	185.28691350244	75
8	2245	185.92474099929	76
8	2255	186.21292497439	77
8	2265	186.6029188502	78
8	2291	189.75787413948	79
8	2306	190.57820854223	80
8	2354	194.7380219371	81
8	2358	194.85065226319	82
8	2398	198.18559598638	83
8	2417	199.16368494218	84
8	2448	200.88572044451	85
8	2573	205.06572738583	86
8	2599	206.86134638209	87
8	2618	207.93352973758	88
8	2630	208.50408522056	89
8	2634	208.9613636267	90
8	2658	213.4152498207	91
8	2671	215.55054968319	92
8	2685	217.35028551251	93
8	2705	217.92367241689	94
8	2720	219.29753255095	95
8	2728	219.7716089058	96
8	2766	222.0687727385	97
8	2779	223.37615542522	98
8	2794	224.47760587434	99
8	2798	224.51602963558	100
8	2812	226.44187488689	101
8	2820	226.93927058544	102
8	2838	229.85519566568	103
8	2871	231.7139712634	104
8	2879	232.000584586	105
8	2895	232.80059792279	106
8	2899	233.13572072417	107
8	2952	239.69567771413	108
8	2966	241.24358971831	109
8	2970	241.51294983906	110
8	2985	242.72688827887	111
8	2998	243.40250968447	112
8	3015	244.27960036848	113
8	3049	246.65555558975	114
8	3072	249.03417817645	115
8	3079	249.56292328718	116
8	3181	251.01020324153	117
8	3185	251.02946259177	118
8	3211	253.219557614	119
8	3224	253.69742640522	120
8	3228	253.81871786495	121
8	3234	254.66006598881	122
8	3246	256.57006234376	123
8	3261	258.36377712842	124
8	3285	262.9468707327	125
8	3299	264.3835052137	126
8	3305	265.93707776375	127
8	3322	267.22502531363	128
8	3353	271.74504400108	129
8	3362	272.32788718948	130
8	3373	273.17247672	131
8	3387	274.01617795339	132
8	3397	274.88366830805	133
8	3403	275.55310150355	134
8	3423	276.38260657196	135
8	3429	276.65672488338	136
8	3444	277.95965319841	137
8	3451	278.58623131507	138
8	3480	284.21355355977	139
8	3490	286.62149993917	140
8	3502	290.35864842534	141
8	3516	292.95232000121	142
8	3520	293.21054369423	143
8	3545	297.43760426986	144
8	3553	299.20829901801	145
8	3563	300.60895789641	146
8	3664	301.80643491857	147
8	3676	303.77567661636	148
8	3699	311.10649494631	149
8	3716	315.3927967883	150
8	3727	317.36923184576	151
8	3761	328.75674323158	152
8	3770	332.38809485798	153
8	3783	336.61876515233	154
8	3793	339.77038025371	155
8	3808	340.40001698763	156
8	3817	341.00303404326	157
8	3844	347.23079883089	158
8	3948	351.67759811383	159
8	3958	353.06060381993	160
8	3967	353.63576534895	161
8	3982	357.79639483656	162
8	4000	360.70504260478	163
8	4014	364.64653810249	164
8	4025	366.83771094986	165
8	4058	379.03441041572	166
8	4067	380.42584056145	167
8	4091	384.28032393781	168
8	4098	384.72974473322	169
8	4118	390.96152570091	170
8	4125	391.43469324212	171
8	4243	403.69668615161	172
8	4281	410.55342296366	173
8	4288	412.56081323896	174
8	4304	413.72543811908	175
8	4315	414.86912432421	176
8	4321	415.99661119378	177
8	4345	425.13724416491	178
8	4358	428.25104384547	179
8	4393	442.39613498387	180
8	4399	442.55231024228	181
8	4407	444.24236474188	182
8	4414	445.95119870132	183
8	4433	449.44526838946	184
8	4445	450.3776068449	185
8	4449	450.80748587326	186
8	4548	452.43889791603	187
8	4566	458.20967557249	188
8	4576	459.106257942	189
8	4583	459.86222601672	190
8	4616	470.85707027461	191
8	4620	471.01980496177	192
8	4633	472.95993609915	193
8	4663	478.90582320261	194
8	4667	478.99602107763	195
8	4676	481.54090923818	196
8	4699	489.13299556532	197
8	4703	489.37964803416	198
8	4725	493.86239995239	199
8	4734	495.57671964962	200
8	4757	499.96231214126	201
8	4765	500.87636201985	202
8	4863	502.38052642265	203
8	4883	508.40794083758	204
8	4891	508.78267886923	205
8	4895	509.28975678226	206
8	4904	511.31264074919	207
8	4956	530.88066437159	208
8	4965	532.8023017623	209
8	4987	543.35033852899	210
8	4996	544.57269999774	211
8	5000	544.84253481592	212
8	5163	551.51322560379	213
8	5182	559.14511394434	214
8	5195	563.71236024717	215
8	5211	569.83110147057	216
8	5246	576.8644363968	217
8	5250	577.11602038997	218
8	5256	577.75844666156	219
8	5271	580.5798949113	220
8	5278	581.06131477858	221
8	5289	584.04740733154	222
8	5327	593.05387915558	223
8	5461	608.00930727383	224
8	5493	612.86933881523	225
8	5511	616.7487382173	226
8	5516	617.07275663716	227
8	5532	620.35028814049	228
8	5562	625.31701461056	229
8	5573	626.95254968539	230
8	5581	627.2469518972	231
8	5586	627.87704583084	232
8	5597	629.7149353695	233
8	5611	632.55914880176	234
8	5621	635.69391766389	235
8	5641	636.46647100331	236
8	5648	636.96771791614	237
8	5657	637.75868606981	238
8	5679	641.23522126874	239
8	5690	643.51379235567	240
8	5697	644.51345541974	241
8	5725	647.71242159633	242
8	5741	649.92939401594	243
8	5749	650.89388953232	244
8	5858	654.98860005698	245
8	5870	657.43578158962	246
8	5882	661.01917958063	247
8	5901	664.06599435665	248
8	5912	665.74979307306	249
8	5920	667.18814031513	250
8	5944	670.76663358933	251
8	5953	672.40232922584	252
8	5978	678.95946133397	253
8	5986	680.24489588564	254
8	6034	689.32429259469	255
8	6051	692.31564441574	256
8	6060	693.15847485553	257
8	6080	699.84566847076	258
8	6218	708.45135696111	259
8	6234	710.65385151054	260
8	6266	718.67005841917	261
8	6320	726.83356297262	262
8	6329	727.64407695266	263
8	6338	729.46015806927	264
8	6393	739.79721224809	265
8	6417	743.52561045729	266
8	6427	745.80473525897	267
9	167	11.2048247571	180
9	1438	118.67846417804	180
9	1645	138.68170014913	180
9	2021	164.4618535948	180
9	2244	185.92474099929	180
9	2633	208.9613636267	180
9	2969	241.51294983906	180
9	4756	499.96231214126	180
10	167	11.2048247571	10.2048247571
10	1438	118.67846417804	117.67846417804
10	1645	138.68170014913	137.68170014913
10	2021	164.4618535948	163.4618535948
10	2244	185.92474099929	184.92474099929
10	2633	208.9613636267	207.9613636267
10	2969	241.51294983906	240.51294983906
10	4756	499.96231214126	498.96231214126
11	167	11.2048247571	10.2048247571
12	186	13.19326571482	180
12	394	33.49742873166	180
12	908	75.02334726685	180
12	1126	97.40158149683	180
12	2201	181.17539113914	180
12	2598	206.86134638209	180
12	2894	232.80059792279	180
12	3396	274.88366830805	180
12	3501	290.35864842534	180
12	3663	301.80643491857	180
12	3843	347.23079883089	180
12	5288	584.04740733154	180
12	5510	616.7487382173	180
12	5678	641.23522126874	180
13	186	13.19326571482	12.19326571482
13	394	33.49742873166	32.49742873166
13	908	75.02334726685	74.02334726685
13	1126	97.40158149683	96.40158149683
13	2201	181.17539113914	180.17539113914
13	2598	206.86134638209	205.86134638209
13	2894	232.80059792279	231.80059792279
13	3396	274.88366830805	273.88366830805
13	3501	290.35864842534	289.35864842534
13	3663	301.80643491857	300.80643491857
13	3843	347.23079883089	346.23079883089
13	5288	584.04740733154	583.04740733154
13	5510	616.7487382173	615.7487382173
13	5678	641.23522126874	640.23522126874
14	186	13.19326571482	12.19326571482
15	211	16.38968105488	180
15	1147	99.1129058978	180
15	1580	130.34816605215	180
15	2051	166.80447730412	180
15	2290	189.75787413948	180
15	2447	200.88572044451	180
15	2657	213.4152498207	180
15	3078	249.56292328718	180
15	3361	272.32788718948	180
15	3816	341.00303404326	180
15	4582	459.86222601672	180
15	5194	563.71236024717	180
15	5572	626.95254968539	180
15	5647	636.96771791614	180
16	211	16.38968105488	15.38968105488
16	1147	99.1129058978	98.1129058978
16	1580	130.34816605215	129.34816605215
16	2051	166.80447730412	165.80447730412
16	2290	189.75787413948	188.75787413948
16	2447	200.88572044451	199.88572044451
16	2657	213.4152498207	212.4152498207
16	3078	249.56292328718	248.56292328718
16	3361	272.32788718948	271.32788718948
16	3816	341.00303404326	340.00303404326
16	4582	459.86222601672	458.86222601672
16	5194	563.71236024717	562.71236024717
16	5572	626.95254968539	625.95254968539
16	5647	636.96771791614	635.96771791614
17	211	16.38968105488	15.38968105488
18	230	18.71139786433	180
18	820	66.00421997596	180
18	969	80.53317590028	180
18	1305	105.17490047256	180
18	1509	124.811245643	180
18	2195	180.93103760031	180
18	2357	194.85065226319	180
18	2793	224.47760587434	180
18	3048	246.65555558975	180
18	3544	297.43760426986	180
18	4444	450.3776068449	180
18	4724	493.86239995239	180
19	230	18.71139786433	17.71139786433
19	820	66.00421997596	65.00421997596
19	969	80.53317590028	79.53317590028
19	1305	105.17490047256	104.17490047256
19	1509	124.811245643	123.811245643
19	2195	180.93103760031	179.93103760031
19	2357	194.85065226319	193.85065226319
19	2793	224.47760587434	223.47760587434
19	3048	246.65555558975	245.65555558975
19	3544	297.43760426986	296.43760426986
19	4444	450.3776068449	449.3776068449
19	4724	493.86239995239	492.86239995239
20	230	18.71139786433	17.71139786433
21	255	20.14148331474	180
21	500	43.03623350331	180
21	807	65.41218534804	180
21	1037	87.06168371479	180
21	1162	99.96035910205	180
21	1447	119.6976200118	180
21	1718	142.95857315411	180
21	2009	163.18197609385	180
21	2234	185.28691350244	180
21	2397	198.18559598638	180
21	2704	217.92367241689	180
21	2837	229.85519566568	180
21	2965	241.24358971831	180
21	3223	253.69742640522	180
21	3422	276.38260657196	180
21	3999	360.70504260478	180
21	4615	470.85707027461	180
22	255	20.14148331474	19.14148331474
22	500	43.03623350331	42.03623350331
22	807	65.41218534804	64.41218534804
22	1037	87.06168371479	86.06168371479
22	1162	99.96035910205	98.96035910205
22	1447	119.6976200118	118.6976200118
22	1718	142.95857315411	141.95857315411
22	2009	163.18197609385	162.18197609385
22	2234	185.28691350244	184.28691350244
22	2397	198.18559598638	197.18559598638
22	2704	217.92367241689	216.92367241689
22	2837	229.85519566568	228.85519566568
22	2965	241.24358971831	240.24358971831
22	3223	253.69742640522	252.69742640522
22	3422	276.38260657196	275.38260657196
22	3999	360.70504260478	359.70504260478
22	4615	470.85707027461	469.85707027461
23	255	20.14148331474	19.14148331474
24	368	30.86352227548	180
24	826	66.79283151113	180
24	1517	125.85368379311	180
24	1771	148.02979865054	180
24	2090	170.09481586226	180
24	2778	223.37615542522	180
24	3515	292.95232000121	180
24	3675	303.77567661636	180
24	5748	650.89388953232	180
24	5900	664.06599435665	180
25	368	30.86352227548	29.86352227548
25	826	66.79283151113	65.79283151113
25	1517	125.85368379311	124.85368379311
25	1771	148.02979865054	147.02979865054
25	2090	170.09481586226	169.09481586226
25	2778	223.37615542522	222.37615542522
25	3515	292.95232000121	291.95232000121
25	3675	303.77567661636	302.77567661636
25	5748	650.89388953232	649.89388953232
25	5900	664.06599435665	663.06599435665
26	368	30.86352227548	29.86352227548
27	405	34.82198492152	180
27	674	51.75612802378	180
27	1027	86.51413449197	180
27	2056	166.92065919976	180
27	2727	219.7716089058	180
27	2898	233.13572072417	180
27	3180	251.01020324153	180
27	4124	391.43469324212	180
27	4432	449.44526838946	180
27	5210	569.83110147057	180
28	405	34.82198492152	33.82198492152
28	674	51.75612802378	50.75612802378
28	1027	86.51413449197	85.51413449197
28	2056	166.92065919976	165.92065919976
28	2727	219.7716089058	218.7716089058
28	2898	233.13572072417	232.13572072417
28	3180	251.01020324153	250.01020324153
28	4124	391.43469324212	390.43469324212
28	4432	449.44526838946	448.44526838946
28	5210	569.83110147057	568.83110147057
29	405	34.82198492152	33.82198492152
30	483	42.20434754951	180
30	750	60.75176081484	180
30	876	71.50533489398	180
30	1100	94.70925147975	180
30	1322	106.67018124232	180
30	1565	129.25145664116	180
30	1901	152.37646542819	180
30	2077	168.54074735873	180
30	2218	182.93690331493	180
30	2811	226.44187488689	180
30	3184	251.02946259177	180
30	3304	265.93707776375	180
30	3450	278.58623131507	180
30	3760	328.75674323158	180
30	4675	481.54090923818	180
30	4882	508.40794083758	180
30	5181	559.14511394434	180
31	483	42.20434754951	41.20434754951
31	750	60.75176081484	59.75176081484
31	876	71.50533489398	70.50533489398
31	1100	94.70925147975	93.70925147975
31	1322	106.67018124232	105.67018124232
31	1565	129.25145664116	128.25145664116
31	1901	152.37646542819	151.37646542819
31	2077	168.54074735873	167.54074735873
31	2218	182.93690331493	181.93690331493
31	2811	226.44187488689	225.44187488689
31	3184	251.02946259177	250.02946259177
31	3304	265.93707776375	264.93707776375
31	3450	278.58623131507	277.58623131507
31	3760	328.75674323158	327.75674323158
31	4675	481.54090923818	480.54090923818
31	4882	508.40794083758	507.40794083758
31	5181	559.14511394434	558.14511394434
32	483	42.20434754951	41.20434754951
33	916	76.08393738608	180
33	3071	249.03417817645	180
33	3519	293.21054369423	180
33	4406	444.24236474188	180
33	4619	471.01980496177	180
33	4999	544.84253481592	180
33	5255	577.75844666156	180
33	5326	593.05387915558	180
33	5515	617.07275663716	180
33	5724	647.71242159633	180
33	5952	672.40232922584	180
33	6233	710.65385151054	180
34	916	76.08393738608	75.08393738608
34	3071	249.03417817645	248.03417817645
34	3519	293.21054369423	292.21054369423
34	4406	444.24236474188	443.24236474188
34	4619	471.01980496177	470.01980496177
34	4999	544.84253481592	543.84253481592
34	5255	577.75844666156	576.75844666156
34	5326	593.05387915558	592.05387915558
34	5515	617.07275663716	616.07275663716
34	5724	647.71242159633	646.71242159633
34	5952	672.40232922584	671.40232922584
34	6233	710.65385151054	709.65385151054
35	916	76.08393738608	75.08393738608
36	1018	85.37991314888	180
36	1757	146.35402750916	180
36	2180	179.16445246542	180
36	2629	208.50408522056	180
36	3210	253.219557614	180
36	3372	273.17247672	180
36	3769	332.38809485798	180
36	4066	380.42584056145	180
36	4242	403.69668615161	180
36	4303	413.72543811908	180
37	1018	85.37991314888	84.37991314888
37	1757	146.35402750916	145.35402750916
37	2180	179.16445246542	178.16445246542
37	2629	208.50408522056	207.50408522056
37	3210	253.219557614	252.219557614
37	3372	273.17247672	272.17247672
37	3769	332.38809485798	331.38809485798
37	4066	380.42584056145	379.42584056145
37	4242	403.69668615161	402.69668615161
37	4303	413.72543811908	412.72543811908
38	1018	85.37991314888	84.37991314888
39	1115	96.29802750767	180
39	1375	110.45096143492	180
39	1595	131.38813760126	180
39	2719	219.29753255095	180
39	3321	267.22502531363	180
39	4013	364.64653810249	180
39	4344	425.13724416491	180
39	4398	442.55231024228	180
39	4575	459.106257942	180
39	5596	629.7149353695	180
39	5696	644.51345541974	180
39	5985	680.24489588564	180
39	6059	693.15847485553	180
39	6265	718.67005841917	180
40	1115	96.29802750767	95.29802750767
40	1375	110.45096143492	109.45096143492
40	1595	131.38813760126	130.38813760126
40	2719	219.29753255095	218.29753255095
40	3321	267.22502531363	266.22502531363
40	4013	364.64653810249	363.64653810249
40	4344	425.13724416491	424.13724416491
40	4398	442.55231024228	441.55231024228
40	4575	459.106257942	458.106257942
40	5596	629.7149353695	628.7149353695
40	5696	644.51345541974	643.51345541974
40	5985	680.24489588564	679.24489588564
40	6059	693.15847485553	692.15847485553
40	6265	718.67005841917	717.67005841917
41	1115	96.29802750767	95.29802750767
42	1281	103.70462836525	180
42	1697	141.8399792252	180
42	1943	157.96687661031	180
42	2819	226.93927058544	180
42	3698	311.10649494631	180
42	4314	414.86912432421	180
42	5249	577.11602038997	180
42	5531	620.35028814049	180
42	5881	661.01917958063	180
43	1281	103.70462836525	102.70462836525
43	1697	141.8399792252	140.8399792252
43	1943	157.96687661031	156.96687661031
43	2819	226.93927058544	225.93927058544
43	3698	311.10649494631	310.10649494631
43	4314	414.86912432421	413.86912432421
43	5249	577.11602038997	576.11602038997
43	5531	620.35028814049	619.35028814049
43	5881	661.01917958063	660.01917958063
44	1281	103.70462836525	102.70462836525
45	1285	103.85242447354	180
45	3233	254.66006598881	180
45	3479	284.21355355977	180
45	4024	366.83771094986	180
45	4057	379.03441041572	180
45	4357	428.25104384547	180
46	1285	103.85242447354	102.85242447354
46	3233	254.66006598881	253.66006598881
46	3479	284.21355355977	283.21355355977
46	4024	366.83771094986	365.83771094986
46	4057	379.03441041572	378.03441041572
46	4357	428.25104384547	427.25104384547
47	1285	103.85242447354	102.85242447354
48	1396	112.50558309469	180
48	1521	126.33311509483	180
48	1970	161.26849688336	180
48	2305	190.57820854223	180
48	3726	317.36923184576	180
48	3782	336.61876515233	180
48	5977	678.95946133397	180
49	1396	112.50558309469	111.50558309469
49	1521	126.33311509483	125.33311509483
49	1970	161.26849688336	160.26849688336
49	2305	190.57820854223	189.57820854223
49	3726	317.36923184576	316.36923184576
49	3782	336.61876515233	335.61876515233
49	5977	678.95946133397	677.95946133397
50	1396	112.50558309469	111.50558309469
51	1479	122.84461433993	180
51	1607	132.94293995591	180
51	2765	222.0687727385	180
51	3298	264.3835052137	180
51	3443	277.95965319841	180
51	3966	353.63576534895	180
51	4565	458.20967557249	180
51	4890	508.78267886923	180
52	1479	122.84461433993	121.84461433993
52	1607	132.94293995591	131.94293995591
52	2765	222.0687727385	221.0687727385
52	3298	264.3835052137	263.3835052137
52	3443	277.95965319841	276.95965319841
52	3966	353.63576534895	352.63576534895
52	4565	458.20967557249	457.20967557249
52	4890	508.78267886923	507.78267886923
53	1479	122.84461433993	121.84461433993
54	1628	136.25583714567	180
54	2097	170.75538530707	180
54	2264	186.6029188502	180
54	2951	239.69567771413	180
54	3386	274.01617795339	180
54	3807	340.40001698763	180
54	3947	351.67759811383	180
55	1628	136.25583714567	135.25583714567
55	2097	170.75538530707	169.75538530707
55	2264	186.6029188502	185.6029188502
55	2951	239.69567771413	238.69567771413
55	3386	274.01617795339	273.01617795339
55	3807	340.40001698763	339.40001698763
55	3947	351.67759811383	350.67759811383
56	1628	136.25583714567	135.25583714567
57	1671	140.08399180779	180
57	1908	153.76498410539	180
57	3227	253.81871786495	180
57	4547	452.43889791603	180
57	5869	657.43578158962	180
58	1671	140.08399180779	139.08399180779
58	1908	153.76498410539	152.76498410539
58	3227	253.81871786495	252.81871786495
58	4547	452.43889791603	451.43889791603
58	5869	657.43578158962	656.43578158962
59	1671	140.08399180779	139.08399180779
60	1713	142.73588378195	180
60	1938	157.23604588516	180
60	2997	243.40250968447	180
60	3402	275.55310150355	180
60	3552	299.20829901801	180
60	4320	415.99661119378	180
60	4632	472.95993609915	180
60	4733	495.57671964962	180
60	5943	670.76663358933	180
61	1713	142.73588378195	141.73588378195
61	1938	157.23604588516	156.23604588516
61	2997	243.40250968447	242.40250968447
61	3402	275.55310150355	274.55310150355
61	3552	299.20829901801	298.20829901801
61	4320	415.99661119378	414.99661119378
61	4632	472.95993609915	471.95993609915
61	4733	495.57671964962	494.57671964962
61	5943	670.76663358933	669.76663358933
62	1713	142.73588378195	141.73588378195
63	1723	143.23061641133	180
63	2036	165.74753631549	180
63	2870	231.7139712634	180
63	2984	242.72688827887	180
63	3260	258.36377712842	180
63	3428	276.65672488338	180
63	3957	353.06060381993	180
63	4097	384.72974473322	180
63	4448	450.80748587326	180
63	5857	654.98860005698	180
63	6319	726.83356297262	180
64	1723	143.23061641133	142.23061641133
64	2036	165.74753631549	164.74753631549
64	2870	231.7139712634	230.7139712634
64	2984	242.72688827887	241.72688827887
64	3260	258.36377712842	257.36377712842
64	3428	276.65672488338	275.65672488338
64	3957	353.06060381993	352.06060381993
64	4097	384.72974473322	383.72974473322
64	4448	450.80748587326	449.80748587326
64	5857	654.98860005698	653.98860005698
64	6319	726.83356297262	725.83356297262
65	1723	143.23061641133	142.23061641133
66	1761	146.50834412955	180
66	2254	186.21292497439	180
66	2416	199.16368494218	180
66	2684	217.35028551251	180
66	3284	262.9468707327	180
66	5740	649.92939401594	180
67	1761	146.50834412955	145.50834412955
67	2254	186.21292497439	185.21292497439
67	2416	199.16368494218	198.16368494218
67	2684	217.35028551251	216.35028551251
67	3284	262.9468707327	261.9468707327
67	5740	649.92939401594	648.92939401594
68	1761	146.50834412955	145.50834412955
69	2617	207.93352973758	180
69	2878	232.000584586	180
69	3562	300.60895789641	180
69	3715	315.3927967883	180
69	3981	357.79639483656	180
69	4280	410.55342296366	180
70	2617	207.93352973758	206.93352973758
70	2878	232.000584586	231.000584586
70	3562	300.60895789641	299.60895789641
70	3715	315.3927967883	314.3927967883
70	3981	357.79639483656	356.79639483656
70	4280	410.55342296366	409.55342296366
71	2617	207.93352973758	206.93352973758
72	2670	215.55054968319	180
72	3245	256.57006234376	180
72	3792	339.77038025371	180
72	4090	384.28032393781	180
72	4413	445.95119870132	180
72	5610	632.55914880176	180
72	6079	699.84566847076	180
72	6426	745.80473525897	180
73	2670	215.55054968319	214.55054968319
73	3245	256.57006234376	255.57006234376
73	3792	339.77038025371	338.77038025371
73	4090	384.28032393781	383.28032393781
73	4413	445.95119870132	444.95119870132
73	5610	632.55914880176	631.55914880176
73	6079	699.84566847076	698.84566847076
73	6426	745.80473525897	744.80473525897
74	2670	215.55054968319	214.55054968319
75	3352	271.74504400108	180
75	4702	489.37964803416	180
75	5460	608.00930727383	180
75	5561	625.31701461056	180
76	3352	271.74504400108	270.74504400108
76	4702	489.37964803416	488.37964803416
76	5460	608.00930727383	607.00930727383
76	5561	625.31701461056	624.31701461056
77	3352	271.74504400108	270.74504400108
78	3489	286.62149993917	180
78	4662	478.90582320261	180
78	4903	511.31264074919	180
78	5270	580.5798949113	180
78	5580	627.2469518972	180
79	3489	286.62149993917	285.62149993917
79	4662	478.90582320261	477.90582320261
79	4903	511.31264074919	510.31264074919
79	5270	580.5798949113	579.5798949113
79	5580	627.2469518972	626.2469518972
80	3489	286.62149993917	285.62149993917
81	4117	390.96152570091	180
81	5245	576.8644363968	180
81	5640	636.46647100331	180
82	4117	390.96152570091	389.96152570091
82	5245	576.8644363968	575.8644363968
82	5640	636.46647100331	635.46647100331
83	4117	390.96152570091	389.96152570091
84	4764	500.87636201985	180
84	4955	530.88066437159	180
84	4995	544.57269999774	180
84	5162	551.51322560379	180
84	5277	581.06131477858	180
84	5656	637.75868606981	180
84	6050	692.31564441574	180
84	6217	708.45135696111	180
84	6328	727.64407695266	180
85	4764	500.87636201985	499.87636201985
85	4955	530.88066437159	529.88066437159
85	4995	544.57269999774	543.57269999774
85	5162	551.51322560379	550.51322560379
85	5277	581.06131477858	580.06131477858
85	5656	637.75868606981	636.75868606981
85	6050	692.31564441574	691.31564441574
85	6217	708.45135696111	707.45135696111
85	6328	727.64407695266	726.64407695266
86	4764	500.87636201985	499.87636201985
87	4894	509.28975678226	180
87	4964	532.8023017623	180
87	5492	612.86933881523	180
87	5585	627.87704583084	180
87	5689	643.51379235567	180
87	5919	667.18814031513	180
87	6033	689.32429259469	180
87	6392	739.79721224809	180
88	4894	509.28975678226	508.28975678226
88	4964	532.8023017623	531.8023017623
88	5492	612.86933881523	611.86933881523
88	5585	627.87704583084	626.87704583084
88	5689	643.51379235567	642.51379235567
88	5919	667.18814031513	666.18814031513
88	6033	689.32429259469	688.32429259469
88	6392	739.79721224809	738.79721224809
89	4894	509.28975678226	508.28975678226

