version 3
run General-5-20260605-22:38:08-1048198
attr configname General
attr datetime 20260605-22:38:08
attr datetimef 20260605-223808
attr experiment General
attr inifile Test_MLModel_1.ini
attr iterationvars $0=88143
attr iterationvarsd 88143
attr iterationvarsf 88143-
attr measurement $0=88143
attr network Florasat.Test_Individual.Florasat_Individual_Sats
attr processid 1048198
attr repetition 5
attr replication #5
attr resultdir results
attr runnumber 5
attr seedset 5
config *.satellite[0].NoradModule.raan 185
config *.stats_altitude 670
config *.stats_raan 185
config image-path ../../images:../../../../samples/inet4.5_2/images
config network Florasat.Test_Individual.Florasat_Individual_Sats
config rng-class cMersenneTwister
config *.**.result-recording-modes -
config **.result-recording-modes -
config **.statistic-recording true
config **.scalar-recording true
config **.vector-recording true
config **.vector-record-eventnumbers true
config repeat 10
config seed-0-mt 88143
config sim-time-limit 749s
config simtime-resolution -11
config **.stats_altitude 670
config **.stats_raan 185
config *.radioMedium.backgroundNoise.power -110dBm
config *.radioMedium.mediumLimitCache.centerFrequency 868MHz
config *.radioMedium.mediumLimitCache.maxTransmissionDuration 4s
config *.radioMedium.mediumLimitCache.minInterferenceTime 0s
config **.numSatellites 1
config *.satellite[*].mobilityType "\"Sat_Mob_SatelliteMobility_Standalone\""
config *.satellite[*].noradModuleType "\"Sat_Mob_NoradA\""
config **.satellite[*].**.initFromDisplayString false
config *.satellite[*].mobility.faceForward true
config *.satellite[*].mobility.updateInterval 20s
config *.satellite[*].NoradModule.satName "\"FLoRaSat\""
config *.satellite[*].NoradModule.satIndex -1
config *.satellite[*].NoradModule.baseYear 20
config *.satellite[*].NoradModule.baseDay 1.5
config *.satellite[*].NoradModule.planes 1
config *.satellite[*].NoradModule.satPerPlane 1
config *.satellite[*].NoradModule.eccentricity 0.000001
config *.satellite[*].NoradModule.inclination 98
config *.satellite[*].NoradModule.altitude 670
config *.satellite[0].NoradModule.raan 185
config *.satellite[0].NoradModule.meanAnomaly 195
config *.satellite[*].phyDSL.radio.receiver.enableCollisionOverlap true
config *.satellite[*].phyDSL.radio.receiver.minCollisionOverlap 0s
config *.satellite[*].phyDSL.radio.antenna.typename ConstantGainAntenna
config *.satellite[*].phyDSL.radio.antenna.mobilityModule "\"^.^.^.mobility\""
config *.satellite[*].phyISL.radio.antenna.mobilityModule "\"^.^.^.mobility\""
config *.satellite[*].phyGSL.radio.antenna.mobilityModule "\"^.^.^.mobility\""
config *.satellite[*].phyDSL.radio.antenna.gain 12dB
config *.satellite[*].net.routingType "\"Null_Routing\""
config *.terminal[*].net.routingType "\"Ter_Null_Routing\""
config *.**.numGroundLinks 40
config *.satellite[*].**.interfaceTableModule "\"\""
config **.radioMedium.typename LoRaMedium
config **.radioMedium.analogModel.typename LoRaAnalogModel
config **.intraPlaneIslDisabled false
config **.interPlaneIslDisabled false
config **.numTerminals 30
config *.terminal[*].phy.radio.antenna.mobilityModule "\"^.^.^.mob\""
config *.terminal[*].dlk.mac.interfaceTableModule "\"\""
config *.terminal[*].dlk.energySourceModule "\"\""
config *.terminal[*].dlk.mac.LoRaTP "intuniform(12, 14)"
config *.terminal[*].dlk.mac.LoRaSF "intuniform(10, 12)"
config *.terminal[*].dlk.mac.useMLBox true
config *.terminal[*].dlk.mac.mlBox.modelPath "\"/home/ylnner/Documents/omnet++/omnetpp-6.3.0/projects/florasat_v4_ult_routing/simulations/Test_Individual/mlmodels/bilstm_scripted.pt\""
config **.numberOfPacketsToSend 0
config **.timeToFirstPacket 1s
config **.timeToNextPacket 50s
config *.terminal[0].mob.radius 0.0
config *.terminal[0].mob.centerLatitude 54.978
config *.terminal[0].mob.centerLongitude -1.617
config *.terminal[1].mob.radius 0.0
config *.terminal[1].mob.centerLatitude 52.630
config *.terminal[1].mob.centerLongitude -1.139
config *.terminal[2].mob.radius 0.0
config *.terminal[2].mob.centerLatitude 52.612
config *.terminal[2].mob.centerLongitude -6.295
config *.terminal[3].mob.radius 0.0
config *.terminal[3].mob.centerLatitude 47.243
config *.terminal[3].mob.centerLongitude 6.024
config *.terminal[4].mob.radius 0.0
config *.terminal[4].mob.centerLatitude 43.610
config *.terminal[4].mob.centerLongitude 3.876
config *.terminal[5].mob.radius 0.0
config *.terminal[5].mob.centerLatitude 49.443
config *.terminal[5].mob.centerLongitude 1.099
config *.terminal[6].mob.radius 0.0
config *.terminal[6].mob.centerLatitude 37.992
config *.terminal[6].mob.centerLongitude -1.130
config *.terminal[7].mob.radius 0.0
config *.terminal[7].mob.centerLatitude 40.965
config *.terminal[7].mob.centerLongitude -5.664
config *.terminal[8].mob.radius 0.0
config *.terminal[8].mob.centerLatitude 40.657
config *.terminal[8].mob.centerLongitude -7.914
config *.terminal[9].mob.radius 0.0
config *.terminal[9].mob.centerLatitude 51.340
config *.terminal[9].mob.centerLongitude 12.373
config *.terminal[10].mob.radius 0.0
config *.terminal[10].mob.centerLatitude 51.455
config *.terminal[10].mob.centerLongitude 7.011
config *.terminal[11].mob.radius 0.0
config *.terminal[11].mob.centerLatitude 49.452
config *.terminal[11].mob.centerLongitude 11.076
config *.terminal[12].mob.radius 0.0
config *.terminal[12].mob.centerLatitude 43.769
config *.terminal[12].mob.centerLongitude 11.255
config *.terminal[13].mob.radius 0.0
config *.terminal[13].mob.centerLatitude 41.117
config *.terminal[13].mob.centerLongitude 16.871
config *.terminal[14].mob.radius 0.0
config *.terminal[14].mob.centerLatitude 52.132
config *.terminal[14].mob.centerLongitude 5.291
config *.terminal[15].mob.radius 0.0
config *.terminal[15].mob.centerLatitude 50.411
config *.terminal[15].mob.centerLongitude 4.444
config *.terminal[16].mob.radius 0.0
config *.terminal[16].mob.centerLatitude 47.559
config *.terminal[16].mob.centerLongitude 7.588
config *.terminal[17].mob.radius 0.0
config *.terminal[17].mob.centerLatitude 55.403
config *.terminal[17].mob.centerLongitude 10.402
config *.terminal[18].mob.radius 0.0
config *.terminal[18].mob.centerLatitude 59.858
config *.terminal[18].mob.centerLongitude 17.638
config *.terminal[19].mob.radius 0.0
config *.terminal[19].mob.centerLatitude 60.451
config *.terminal[19].mob.centerLongitude 22.266
config *.terminal[20].mob.radius 0.0
config *.terminal[20].mob.centerLatitude 56.325
config *.terminal[20].mob.centerLongitude 22.349
config *.terminal[21].mob.radius 0.0
config *.terminal[21].mob.centerLatitude 49.883
config *.terminal[21].mob.centerLongitude 18.568
config *.terminal[22].mob.radius 0.0
config *.terminal[22].mob.centerLatitude 47.531
config *.terminal[22].mob.centerLongitude 21.627
config *.terminal[23].mob.radius 0.0
config *.terminal[23].mob.centerLatitude 44.179
config *.terminal[23].mob.centerLongitude 28.649
config *.terminal[24].mob.radius 0.0
config *.terminal[24].mob.centerLatitude 45.327
config *.terminal[24].mob.centerLongitude 14.442
config *.terminal[25].mob.radius 0.0
config *.terminal[25].mob.centerLatitude 40.694
config *.terminal[25].mob.centerLongitude 30.400
config *.terminal[26].mob.radius 0.0
config *.terminal[26].mob.centerLatitude 37.066
config *.terminal[26].mob.centerLongitude 37.383
config *.terminal[27].mob.radius 0.0
config *.terminal[27].mob.centerLatitude 64.836
config *.terminal[27].mob.centerLongitude -23.708
config *.terminal[28].mob.radius 0.0
config *.terminal[28].mob.centerLatitude 28.099
config *.terminal[28].mob.centerLongitude -17.113
config *.terminal[29].mob.radius 0.0
config *.terminal[29].mob.centerLatitude 34.921
config *.terminal[29].mob.centerLongitude 33.623
config **.numStations 3
config **.numStations 3
config *.station[0].mobility.latitude 55.752
config *.station[0].mobility.longitude 37.616
config *.station[0].cityName "\"Moscow\""
config *.station[0].groundStationId 7
config *.station[0].routerAddr "\"10.0.0.29\""
config *.station[0].serving "\"10.0.0.29\""
config *.station[1].mobility.latitude 28.652
config *.station[1].mobility.longitude 77.231
config *.station[1].cityName "\"Delhi\""
config *.station[1].groundStationId 11
config *.station[1].routerAddr "\"10.0.0.45\""
config *.station[1].serving "\"10.0.0.45\""
config *.station[2].mobility.latitude 25.35
config *.station[2].mobility.longitude 51.24
config *.station[2].cityName "\"Katar\""
config *.station[2].groundStationId 19
config *.station[2].routerAddr "\"10.0.0.77\""
config *.station[2].serving "\"10.0.0.77\""
config *.visualizer.canvasVisualizer.mediumVisualizer.typename ""
config *.visualizer.*.radioVisualizer.displayAntennaLobes true
config *.visualizer.*.dataLinkVisualizer.displayLinks true
config *.visualizer.*.mobilityVisualizer.displayMovementTrails true
config *.visualizer.*.mobilityVisualizer.movementTrailLineWidth 1
config *.visualizer.*.mobilityVisualizer.trailLength 3000
config **.ttxStart_max 30s
config **.ttxIdle_min 10s
config **.ttxIdle_max 25s
config **.Ntw 2
config **.Ntx 45
config **.ttwDuration 550s

vector 0 Florasat_Individual_Sats.satellite[0].dlkDSL.mac "Satellite Position when Repetition Received" ETV
vector 1 Florasat_Individual_Sats.satellite[0].dlkDSL.mac "Repetition Position for Node 403 at Satellite" ETV
vector 2 Florasat_Individual_Sats.satellite[0].dlkDSL.mac "All Nodes Repetition Generation Delay at Satellite" ETV
vector 3 Florasat_Individual_Sats.satellite[0].dlkDSL.mac "Repetition Generation Delay for Node 403 at Satellite" ETV
vector 4 Florasat_Individual_Sats.satellite[0].dlkDSL.mac "All Nodes Message Generation Delay at Satellite" ETV
vector 5 Florasat_Individual_Sats.satellite[0].dlkDSL.mac "Message Generation Delay for Node 403 at Satellite" ETV
vector 6 Florasat_Individual_Sats.satellite[0].net.packetHandler "packets received" ETV
vector 7 Florasat_Individual_Sats.satellite[0].net.packetHandler "dropped unroutable" ETV
vector 8 Florasat_Individual_Sats.satellite[0].net.packetHandler "packets dropped" ETV
vector 9 Florasat_Individual_Sats.satellite[0].dlkDSL.mac "Repetition Position for Node 358 at Satellite" ETV
vector 10 Florasat_Individual_Sats.satellite[0].dlkDSL.mac "Repetition Generation Delay for Node 358 at Satellite" ETV
vector 11 Florasat_Individual_Sats.satellite[0].dlkDSL.mac "Message Generation Delay for Node 358 at Satellite" ETV
vector 12 Florasat_Individual_Sats.satellite[0].dlkDSL.mac "Repetition Position for Node 328 at Satellite" ETV
vector 13 Florasat_Individual_Sats.satellite[0].dlkDSL.mac "Repetition Generation Delay for Node 328 at Satellite" ETV
vector 14 Florasat_Individual_Sats.satellite[0].dlkDSL.mac "Message Generation Delay for Node 328 at Satellite" ETV
vector 15 Florasat_Individual_Sats.satellite[0].dlkDSL.mac "Repetition Position for Node 268 at Satellite" ETV
vector 16 Florasat_Individual_Sats.satellite[0].dlkDSL.mac "Repetition Generation Delay for Node 268 at Satellite" ETV
vector 17 Florasat_Individual_Sats.satellite[0].dlkDSL.mac "Message Generation Delay for Node 268 at Satellite" ETV
vector 18 Florasat_Individual_Sats.satellite[0].dlkDSL.mac "Repetition Position for Node 133 at Satellite" ETV
vector 19 Florasat_Individual_Sats.satellite[0].dlkDSL.mac "Repetition Generation Delay for Node 133 at Satellite" ETV
vector 20 Florasat_Individual_Sats.satellite[0].dlkDSL.mac "Message Generation Delay for Node 133 at Satellite" ETV
vector 21 Florasat_Individual_Sats.satellite[0].dlkDSL.mac "Repetition Position for Node 343 at Satellite" ETV
vector 22 Florasat_Individual_Sats.satellite[0].dlkDSL.mac "Repetition Generation Delay for Node 343 at Satellite" ETV
vector 23 Florasat_Individual_Sats.satellite[0].dlkDSL.mac "Message Generation Delay for Node 343 at Satellite" ETV
vector 24 Florasat_Individual_Sats.satellite[0].dlkDSL.mac "Repetition Position for Node 58 at Satellite" ETV
vector 25 Florasat_Individual_Sats.satellite[0].dlkDSL.mac "Repetition Generation Delay for Node 58 at Satellite" ETV
vector 26 Florasat_Individual_Sats.satellite[0].dlkDSL.mac "Message Generation Delay for Node 58 at Satellite" ETV
vector 27 Florasat_Individual_Sats.satellite[0].dlkDSL.mac "Repetition Position for Node 373 at Satellite" ETV
vector 28 Florasat_Individual_Sats.satellite[0].dlkDSL.mac "Repetition Generation Delay for Node 373 at Satellite" ETV
vector 29 Florasat_Individual_Sats.satellite[0].dlkDSL.mac "Message Generation Delay for Node 373 at Satellite" ETV
vector 30 Florasat_Individual_Sats.satellite[0].dlkDSL.mac "Repetition Position for Node 313 at Satellite" ETV
vector 31 Florasat_Individual_Sats.satellite[0].dlkDSL.mac "Repetition Generation Delay for Node 313 at Satellite" ETV
vector 32 Florasat_Individual_Sats.satellite[0].dlkDSL.mac "Message Generation Delay for Node 313 at Satellite" ETV
vector 33 Florasat_Individual_Sats.satellite[0].dlkDSL.mac "Repetition Position for Node 73 at Satellite" ETV
vector 34 Florasat_Individual_Sats.satellite[0].dlkDSL.mac "Repetition Generation Delay for Node 73 at Satellite" ETV
vector 35 Florasat_Individual_Sats.satellite[0].dlkDSL.mac "Message Generation Delay for Node 73 at Satellite" ETV
vector 36 Florasat_Individual_Sats.satellite[0].dlkDSL.mac "Repetition Position for Node 193 at Satellite" ETV
vector 37 Florasat_Individual_Sats.satellite[0].dlkDSL.mac "Repetition Generation Delay for Node 193 at Satellite" ETV
vector 38 Florasat_Individual_Sats.satellite[0].dlkDSL.mac "Message Generation Delay for Node 193 at Satellite" ETV
vector 39 Florasat_Individual_Sats.satellite[0].dlkDSL.mac "Repetition Position for Node 283 at Satellite" ETV
vector 40 Florasat_Individual_Sats.satellite[0].dlkDSL.mac "Repetition Generation Delay for Node 283 at Satellite" ETV
vector 41 Florasat_Individual_Sats.satellite[0].dlkDSL.mac "Message Generation Delay for Node 283 at Satellite" ETV
vector 42 Florasat_Individual_Sats.satellite[0].dlkDSL.mac "Repetition Position for Node 418 at Satellite" ETV
vector 43 Florasat_Individual_Sats.satellite[0].dlkDSL.mac "Repetition Generation Delay for Node 418 at Satellite" ETV
vector 44 Florasat_Individual_Sats.satellite[0].dlkDSL.mac "Message Generation Delay for Node 418 at Satellite" ETV
vector 45 Florasat_Individual_Sats.satellite[0].dlkDSL.mac "Repetition Position for Node 223 at Satellite" ETV
vector 46 Florasat_Individual_Sats.satellite[0].dlkDSL.mac "Repetition Generation Delay for Node 223 at Satellite" ETV
vector 47 Florasat_Individual_Sats.satellite[0].dlkDSL.mac "Message Generation Delay for Node 223 at Satellite" ETV
vector 48 Florasat_Individual_Sats.satellite[0].dlkDSL.mac "Repetition Position for Node 238 at Satellite" ETV
vector 49 Florasat_Individual_Sats.satellite[0].dlkDSL.mac "Repetition Generation Delay for Node 238 at Satellite" ETV
vector 50 Florasat_Individual_Sats.satellite[0].dlkDSL.mac "Message Generation Delay for Node 238 at Satellite" ETV
vector 51 Florasat_Individual_Sats.satellite[0].dlkDSL.mac "Repetition Position for Node 388 at Satellite" ETV
vector 52 Florasat_Individual_Sats.satellite[0].dlkDSL.mac "Repetition Generation Delay for Node 388 at Satellite" ETV
vector 53 Florasat_Individual_Sats.satellite[0].dlkDSL.mac "Message Generation Delay for Node 388 at Satellite" ETV
vector 54 Florasat_Individual_Sats.satellite[0].dlkDSL.mac "Repetition Position for Node 88 at Satellite" ETV
vector 55 Florasat_Individual_Sats.satellite[0].dlkDSL.mac "Repetition Generation Delay for Node 88 at Satellite" ETV
vector 56 Florasat_Individual_Sats.satellite[0].dlkDSL.mac "Message Generation Delay for Node 88 at Satellite" ETV
vector 57 Florasat_Individual_Sats.satellite[0].dlkDSL.mac "Repetition Position for Node 103 at Satellite" ETV
vector 58 Florasat_Individual_Sats.satellite[0].dlkDSL.mac "Repetition Generation Delay for Node 103 at Satellite" ETV
vector 59 Florasat_Individual_Sats.satellite[0].dlkDSL.mac "Message Generation Delay for Node 103 at Satellite" ETV
vector 60 Florasat_Individual_Sats.satellite[0].dlkDSL.mac "Repetition Position for Node 208 at Satellite" ETV
vector 61 Florasat_Individual_Sats.satellite[0].dlkDSL.mac "Repetition Generation Delay for Node 208 at Satellite" ETV
vector 62 Florasat_Individual_Sats.satellite[0].dlkDSL.mac "Message Generation Delay for Node 208 at Satellite" ETV
vector 63 Florasat_Individual_Sats.satellite[0].dlkDSL.mac "Repetition Position for Node 148 at Satellite" ETV
vector 64 Florasat_Individual_Sats.satellite[0].dlkDSL.mac "Repetition Generation Delay for Node 148 at Satellite" ETV
vector 65 Florasat_Individual_Sats.satellite[0].dlkDSL.mac "Message Generation Delay for Node 148 at Satellite" ETV
vector 66 Florasat_Individual_Sats.satellite[0].dlkDSL.mac "Repetition Position for Node 118 at Satellite" ETV
vector 67 Florasat_Individual_Sats.satellite[0].dlkDSL.mac "Repetition Generation Delay for Node 118 at Satellite" ETV
vector 68 Florasat_Individual_Sats.satellite[0].dlkDSL.mac "Message Generation Delay for Node 118 at Satellite" ETV
vector 69 Florasat_Individual_Sats.satellite[0].dlkDSL.mac "Repetition Position for Node 253 at Satellite" ETV
vector 70 Florasat_Individual_Sats.satellite[0].dlkDSL.mac "Repetition Generation Delay for Node 253 at Satellite" ETV
vector 71 Florasat_Individual_Sats.satellite[0].dlkDSL.mac "Message Generation Delay for Node 253 at Satellite" ETV
vector 72 Florasat_Individual_Sats.satellite[0].dlkDSL.mac "Repetition Position for Node 298 at Satellite" ETV
vector 73 Florasat_Individual_Sats.satellite[0].dlkDSL.mac "Repetition Generation Delay for Node 298 at Satellite" ETV
vector 74 Florasat_Individual_Sats.satellite[0].dlkDSL.mac "Message Generation Delay for Node 298 at Satellite" ETV
vector 75 Florasat_Individual_Sats.satellite[0].dlkDSL.mac "Repetition Position for Node 433 at Satellite" ETV
vector 76 Florasat_Individual_Sats.satellite[0].dlkDSL.mac "Repetition Generation Delay for Node 433 at Satellite" ETV
vector 77 Florasat_Individual_Sats.satellite[0].dlkDSL.mac "Message Generation Delay for Node 433 at Satellite" ETV
vector 78 Florasat_Individual_Sats.satellite[0].dlkDSL.mac "Repetition Position for Node 178 at Satellite" ETV
vector 79 Florasat_Individual_Sats.satellite[0].dlkDSL.mac "Repetition Generation Delay for Node 178 at Satellite" ETV
vector 80 Florasat_Individual_Sats.satellite[0].dlkDSL.mac "Message Generation Delay for Node 178 at Satellite" ETV
vector 81 Florasat_Individual_Sats.satellite[0].dlkDSL.mac "Repetition Position for Node 478 at Satellite" ETV
vector 82 Florasat_Individual_Sats.satellite[0].dlkDSL.mac "Repetition Generation Delay for Node 478 at Satellite" ETV
vector 83 Florasat_Individual_Sats.satellite[0].dlkDSL.mac "Message Generation Delay for Node 478 at Satellite" ETV
vector 84 Florasat_Individual_Sats.satellite[0].dlkDSL.mac "Repetition Position for Node 163 at Satellite" ETV
vector 85 Florasat_Individual_Sats.satellite[0].dlkDSL.mac "Repetition Generation Delay for Node 163 at Satellite" ETV
vector 86 Florasat_Individual_Sats.satellite[0].dlkDSL.mac "Message Generation Delay for Node 163 at Satellite" ETV
0	160	8.43245585043	180
0	224	16.58932087937	180
0	236	18.11733536831	180
0	280	24.26304862815	180
0	366	31.67510652742	180
0	378	32.47905787061	180
0	402	34.38761016697	180
0	454	39.3987441982	180
0	467	40.78007940416	180
0	496	44.51214532595	180
0	516	46.38975137709	180
0	705	54.98725453269	180
0	714	56.29204263426	180
0	769	62.41504334489	180
0	774	62.9562696929	180
0	808	65.11712823523	180
0	866	70.29173595462	180
0	926	75.92282159713	180
0	932	76.6925214691	180
0	967	79.95616135997	180
0	991	82.56366597236	180
0	995	82.87746116513	180
0	1014	85.09597855563	180
0	1084	92.04616845994	180
0	1114	95.28308106683	180
0	1135	96.85901641258	180
0	1149	97.9472843645	180
0	1170	99.46103371442	180
0	1303	105.54249783224	180
0	1317	106.72928861206	180
0	1331	107.94548804815	180
0	1350	110.21083894414	180
0	1398	114.19207461988	180
0	1436	116.5754920483	180
0	1461	118.70901018943	180
0	1493	121.84475428302	180
0	1502	122.9991787088	180
0	1506	123.07037684311	180
0	1522	126.12644358416	180
0	1581	131.16993260084	180
0	1627	134.29678684393	180
0	1645	135.44565069199	180
0	1655	135.8853393663	180
0	1671	137.74283101492	180
0	1712	142.63356268865	180
0	1719	143.13813582639	180
0	1738	145.69097262518	180
0	1760	148.63712751987	180
0	1774	149.97018786956	180
0	1890	151.01863739839	180
0	1916	152.96926424665	180
0	1930	153.89460638261	180
0	1982	160.77240971726	180
0	1999	162.23735224631	180
0	2026	165.17637016711	180
0	2033	165.31502013656	180
0	2042	166.02175264265	180
0	2067	168.17769712879	180
0	2084	170.52624293081	180
0	2117	173.1232618585	180
0	2142	175.24628360865	180
0	2160	178.08632199879	180
0	2183	180.1215008832	180
0	2187	180.24305741398	180
0	2217	182.08880369495	180
0	2288	188.15365463606	180
0	2295	188.62569869024	180
0	2299	188.75796579117	180
0	2303	189.47777318747	180
0	2321	190.7092728204	180
0	2327	191.54452133787	180
0	2338	193.16854316918	180
0	2349	193.62799387172	180
0	2353	193.76196699793	180
0	2357	194.05806038006	180
0	2366	195.42315077329	180
0	2382	196.95514546933	180
0	2395	197.97952153946	180
0	2403	198.54198847879	180
0	2518	202.38034761024	180
0	2532	203.43268812512	180
0	2561	204.71825620103	180
0	2568	205.09964441061	180
0	2576	205.58579542072	180
0	2639	212.1122185734	180
0	2672	214.59810101886	180
0	2698	218.83334292776	180
0	2715	220.54549679503	180
0	2719	220.90999826267	180
0	2728	222.09412118831	180
0	2756	223.69315130398	180
0	2760	223.73282875342	180
0	2795	225.72890112055	180
0	2821	227.66774223879	180
0	2835	228.96550274099	180
0	2839	229.05686154009	180
0	2871	232.20126183647	180
0	2889	235.02810397877	180
0	2899	235.87442326935	180
0	2916	237.83551498415	180
0	2920	238.02452484321	180
0	2924	238.14536049491	180
0	2935	238.67240625661	180
0	2967	242.57699114331	180
0	3017	245.9033951838	180
0	3035	248.1563246	180
0	3048	249.23727401177	180
0	3061	250.482635948	180
0	3168	253.13888774931	180
0	3189	256.08397558908	180
0	3199	256.77205916255	180
0	3216	257.87751393851	180
0	3242	260.35776100065	180
0	3270	262.41532537731	180
0	3284	264.42811426818	180
0	3300	266.55596794154	180
0	3315	267.86164394923	180
0	3385	277.01025874348	180
0	3401	278.41124797765	180
0	3405	278.64298912575	180
0	3431	285.06403806911	180
0	3466	290.75979293084	180
0	3475	292.83802892064	180
0	3490	297.55934187904	180
0	3505	299.59650988674	180
0	3512	300.01283046732	180
0	3634	310.44237197124	180
0	3651	314.32562512922	180
0	3671	316.74543827173	180
0	3704	332.16520230578	180
0	3738	345.51674330716	180
0	3752	347.22891690967	180
0	3767	349.01342175531	180
0	3772	349.29759303168	180
0	3780	350.25016741939	180
0	3880	352.81670699574	180
0	3898	355.35872714304	180
0	3907	358.04823723601	180
0	3916	359.34443430969	180
0	3939	363.41139772424	180
0	3961	369.57410036798	180
0	3973	371.46741802667	180
0	3988	373.10429088182	180
0	3994	373.50041468688	180
0	4029	376.21992122725	180
0	4043	379.33616907395	180
0	4055	381.81074704803	180
0	4071	386.79088357082	180
0	4088	393.71290506789	180
0	4098	395.2680879977	180
0	4107	396.40918350425	180
0	4120	398.1178082136	180
0	4243	408.17549320033	180
0	4258	413.87578668417	180
0	4270	415.62442686519	180
0	4278	416.07259411009	180
0	4286	416.84609334795	180
0	4310	422.41054435605	180
0	4314	423.41854687643	180
0	4323	425.48539528952	180
0	4333	428.10164528528	180
0	4363	434.47043840303	180
0	4371	435.87724758179	180
0	4379	437.46839729116	180
0	4390	439.07870415578	180
0	4400	441.15551225718	180
0	4410	443.00676228355	180
0	4422	445.23662324174	180
0	4434	446.59945099841	180
0	4440	447.59248780414	180
0	4551	453.29009470355	180
0	4581	459.60036548728	180
0	4597	462.1597842529	180
0	4604	462.97865645837	180
0	4623	468.55643850512	180
0	4639	473.98985121693	180
0	4649	475.28488915356	180
0	4659	476.97265767019	180
0	4666	478.46280188045	180
0	4691	486.04813619745	180
0	4703	488.98597277336	180
0	4717	491.95066478897	180
0	4724	492.3957163153	180
0	4736	493.93531934817	180
0	4740	494.356239141	180
0	4755	497.41081868243	180
0	4767	498.60079375619	180
0	4774	499.95454688535	180
0	4894	506.4876175846	180
0	4909	509.8063773753	180
0	4925	514.61810563685	180
0	4932	515.41216411375	180
0	4936	516.00134870795	180
0	4956	522.33373734463	180
0	4966	524.44597447624	180
0	4978	527.62481876179	180
0	5001	534.85097694736	180
0	5018	540.84208454566	180
0	5161	552.60448142248	180
0	5169	555.8127387782	180
0	5181	558.60837361769	180
0	5185	558.86086330343	180
0	5208	566.00213630584	180
0	5227	569.29331617643	180
0	5231	569.30214546099	180
0	5243	571.05879238867	180
0	5265	579.80652471053	180
0	5274	580.66580186658	180
0	5291	588.05089621565	180
0	5313	593.73465631333	180
0	5327	595.81286423717	180
0	5450	602.38527517978	180
0	5463	607.45452359066	180
0	5470	608.57709625613	180
0	5482	611.813719449	180
0	5556	628.93826402318	180
0	5578	632.6629508634	180
0	5598	638.00599798088	180
0	5612	641.13767566452	180
0	5619	641.9709725032	180
0	5626	642.53794060884	180
0	5652	648.95213998848	180
0	5767	653.92064961948	180
0	5782	656.31348001598	180
0	5801	657.83453849088	180
0	5807	658.45139591353	180
0	5820	662.06730716391	180
0	5851	667.66711123049	180
0	5861	668.85005536317	180
0	5880	674.22384046892	180
0	5901	677.14169011432	180
0	5906	677.32148033627	180
0	5917	679.95420971283	180
0	5933	683.66911958782	180
0	5969	687.86672306191	180
0	5982	689.87808161708	180
0	6004	693.4242759325	180
0	6019	695.00609792129	180
0	6049	699.70493017211	180
0	6214	710.59844721787	180
0	6255	716.14908347431	180
0	6280	719.23341524731	180
0	6330	727.90404630536	180
0	6342	731.29982826978	180
0	6360	733.88063710127	180
0	6416	742.15287621579	180
0	6431	745.34387927715	180
0	6458	748.20496570729	180
1	160	8.43245585043	180
1	1331	107.94548804815	180
1	1999	162.23735224631	180
1	2760	223.73282875342	180
1	2920	238.02452484321	180
1	3061	250.482635948	180
1	4597	462.1597842529	180
1	5161	552.60448142248	180
1	5231	569.30214546099	180
2	160	8.43245585043	7.43245585043
2	224	16.58932087937	15.58932087937
2	236	18.11733536831	17.11733536831
2	280	24.26304862815	23.26304862815
2	366	31.67510652742	30.67510652742
2	378	32.47905787061	31.47905787061
2	402	34.38761016697	33.38761016697
2	454	39.3987441982	38.3987441982
2	467	40.78007940416	39.78007940416
2	496	44.51214532595	43.51214532595
2	516	46.38975137709	45.38975137709
2	705	54.98725453269	53.98725453269
2	714	56.29204263426	55.29204263426
2	769	62.41504334489	61.41504334489
2	774	62.9562696929	61.9562696929
2	808	65.11712823523	64.11712823523
2	866	70.29173595462	69.29173595462
2	926	75.92282159713	74.92282159713
2	932	76.6925214691	75.6925214691
2	967	79.95616135997	78.95616135997
2	991	82.56366597236	81.56366597236
2	995	82.87746116513	81.87746116513
2	1014	85.09597855563	84.09597855563
2	1084	92.04616845994	91.04616845994
2	1114	95.28308106683	94.28308106683
2	1135	96.85901641258	95.85901641258
2	1149	97.9472843645	96.9472843645
2	1170	99.46103371442	98.46103371442
2	1303	105.54249783224	104.54249783224
2	1317	106.72928861206	105.72928861206
2	1331	107.94548804815	106.94548804815
2	1350	110.21083894414	109.21083894414
2	1398	114.19207461988	113.19207461988
2	1436	116.5754920483	115.5754920483
2	1461	118.70901018943	117.70901018943
2	1493	121.84475428302	120.84475428302
2	1502	122.9991787088	121.9991787088
2	1506	123.07037684311	122.07037684311
2	1522	126.12644358416	125.12644358416
2	1581	131.16993260084	130.16993260084
2	1627	134.29678684393	133.29678684393
2	1645	135.44565069199	134.44565069199
2	1655	135.8853393663	134.8853393663
2	1671	137.74283101492	136.74283101492
2	1712	142.63356268865	141.63356268865
2	1719	143.13813582639	142.13813582639
2	1738	145.69097262518	144.69097262518
2	1760	148.63712751987	147.63712751987
2	1774	149.97018786956	148.97018786956
2	1890	151.01863739839	150.01863739839
2	1916	152.96926424665	151.96926424665
2	1930	153.89460638261	152.89460638261
2	1982	160.77240971726	159.77240971726
2	1999	162.23735224631	161.23735224631
2	2026	165.17637016711	164.17637016711
2	2033	165.31502013656	164.31502013656
2	2042	166.02175264265	165.02175264265
2	2067	168.17769712879	167.17769712879
2	2084	170.52624293081	169.52624293081
2	2117	173.1232618585	172.1232618585
2	2142	175.24628360865	174.24628360865
2	2160	178.08632199879	177.08632199879
2	2183	180.1215008832	179.1215008832
2	2187	180.24305741398	179.24305741398
2	2217	182.08880369495	181.08880369495
2	2288	188.15365463606	187.15365463606
2	2295	188.62569869024	187.62569869024
2	2299	188.75796579117	187.75796579117
2	2303	189.47777318747	188.47777318747
2	2321	190.7092728204	189.7092728204
2	2327	191.54452133787	190.54452133787
2	2338	193.16854316918	192.16854316918
2	2349	193.62799387172	192.62799387172
2	2353	193.76196699793	192.76196699793
2	2357	194.05806038006	193.05806038006
2	2366	195.42315077329	194.42315077329
2	2382	196.95514546933	195.95514546933
2	2395	197.97952153946	196.97952153946
2	2403	198.54198847879	197.54198847879
2	2518	202.38034761024	201.38034761024
2	2532	203.43268812512	202.43268812512
2	2561	204.71825620103	203.71825620103
2	2568	205.09964441061	204.09964441061
2	2576	205.58579542072	204.58579542072
2	2639	212.1122185734	211.1122185734
2	2672	214.59810101886	213.59810101886
2	2698	218.83334292776	217.83334292776
2	2715	220.54549679503	219.54549679503
2	2719	220.90999826267	219.90999826267
2	2728	222.09412118831	221.09412118831
2	2756	223.69315130398	222.69315130398
2	2760	223.73282875342	222.73282875342
2	2795	225.72890112055	224.72890112055
2	2821	227.66774223879	226.66774223879
2	2835	228.96550274099	227.96550274099
2	2839	229.05686154009	228.05686154009
2	2871	232.20126183647	231.20126183647
2	2889	235.02810397877	234.02810397877
2	2899	235.87442326935	234.87442326935
2	2916	237.83551498415	236.83551498415
2	2920	238.02452484321	237.02452484321
2	2924	238.14536049491	237.14536049491
2	2935	238.67240625661	237.67240625661
2	2967	242.57699114331	241.57699114331
2	3017	245.9033951838	244.9033951838
2	3035	248.1563246	247.1563246
2	3048	249.23727401177	248.23727401177
2	3061	250.482635948	249.482635948
2	3168	253.13888774931	252.13888774931
2	3189	256.08397558908	255.08397558908
2	3199	256.77205916255	255.77205916255
2	3216	257.87751393851	256.87751393851
2	3242	260.35776100065	259.35776100065
2	3270	262.41532537731	261.41532537731
2	3284	264.42811426818	263.42811426818
2	3300	266.55596794154	265.55596794154
2	3315	267.86164394923	266.86164394923
2	3385	277.01025874348	276.01025874348
2	3401	278.41124797765	277.41124797765
2	3405	278.64298912575	277.64298912575
2	3431	285.06403806911	284.06403806911
2	3466	290.75979293084	289.75979293084
2	3475	292.83802892064	291.83802892064
2	3490	297.55934187904	296.55934187904
2	3505	299.59650988674	298.59650988674
2	3512	300.01283046732	299.01283046732
2	3634	310.44237197124	309.44237197124
2	3651	314.32562512922	313.32562512922
2	3671	316.74543827173	315.74543827173
2	3704	332.16520230578	331.16520230578
2	3738	345.51674330716	344.51674330716
2	3752	347.22891690967	346.22891690967
2	3767	349.01342175531	348.01342175531
2	3772	349.29759303168	348.29759303168
2	3780	350.25016741939	349.25016741939
2	3880	352.81670699574	351.81670699574
2	3898	355.35872714304	354.35872714304
2	3907	358.04823723601	357.04823723601
2	3916	359.34443430969	358.34443430969
2	3939	363.41139772424	362.41139772424
2	3961	369.57410036798	368.57410036798
2	3973	371.46741802667	370.46741802667
2	3988	373.10429088182	372.10429088182
2	3994	373.50041468688	372.50041468688
2	4029	376.21992122725	375.21992122725
2	4043	379.33616907395	378.33616907395
2	4055	381.81074704803	380.81074704803
2	4071	386.79088357082	385.79088357082
2	4088	393.71290506789	392.71290506789
2	4098	395.2680879977	394.2680879977
2	4107	396.40918350425	395.40918350425
2	4120	398.1178082136	397.1178082136
2	4243	408.17549320033	407.17549320033
2	4258	413.87578668417	412.87578668417
2	4270	415.62442686519	414.62442686519
2	4278	416.07259411009	415.07259411009
2	4286	416.84609334795	415.84609334795
2	4310	422.41054435605	421.41054435605
2	4314	423.41854687643	422.41854687643
2	4323	425.48539528952	424.48539528952
2	4333	428.10164528528	427.10164528528
2	4363	434.47043840303	433.47043840303
2	4371	435.87724758179	434.87724758179
2	4379	437.46839729116	436.46839729116
2	4390	439.07870415578	438.07870415578
2	4400	441.15551225718	440.15551225718
2	4410	443.00676228355	442.00676228355
2	4422	445.23662324174	444.23662324174
2	4434	446.59945099841	445.59945099841
2	4440	447.59248780414	446.59248780414
2	4551	453.29009470355	452.29009470355
2	4581	459.60036548728	458.60036548728
2	4597	462.1597842529	461.1597842529
2	4604	462.97865645837	461.97865645837
2	4623	468.55643850512	467.55643850512
2	4639	473.98985121693	472.98985121693
2	4649	475.28488915356	474.28488915356
2	4659	476.97265767019	475.97265767019
2	4666	478.46280188045	477.46280188045
2	4691	486.04813619745	485.04813619745
2	4703	488.98597277336	487.98597277336
2	4717	491.95066478897	490.95066478897
2	4724	492.3957163153	491.3957163153
2	4736	493.93531934817	492.93531934817
2	4740	494.356239141	493.356239141
2	4755	497.41081868243	496.41081868243
2	4767	498.60079375619	497.60079375619
2	4774	499.95454688535	498.95454688535
2	4894	506.4876175846	505.4876175846
2	4909	509.8063773753	508.8063773753
2	4925	514.61810563685	513.61810563685
2	4932	515.41216411375	514.41216411375
2	4936	516.00134870795	515.00134870795
2	4956	522.33373734463	521.33373734463
2	4966	524.44597447624	523.44597447624
2	4978	527.62481876179	526.62481876179
2	5001	534.85097694736	533.85097694736
2	5018	540.84208454566	539.84208454566
2	5161	552.60448142248	551.60448142248
2	5169	555.8127387782	554.8127387782
2	5181	558.60837361769	557.60837361769
2	5185	558.86086330343	557.86086330343
2	5208	566.00213630584	565.00213630584
2	5227	569.29331617643	568.29331617643
2	5231	569.30214546099	568.30214546099
2	5243	571.05879238867	570.05879238867
2	5265	579.80652471053	578.80652471053
2	5274	580.66580186658	579.66580186658
2	5291	588.05089621565	587.05089621565
2	5313	593.73465631333	592.73465631333
2	5327	595.81286423717	594.81286423717
2	5450	602.38527517978	601.38527517978
2	5463	607.45452359066	606.45452359066
2	5470	608.57709625613	607.57709625613
2	5482	611.813719449	610.813719449
2	5556	628.93826402318	627.93826402318
2	5578	632.6629508634	631.6629508634
2	5598	638.00599798088	637.00599798088
2	5612	641.13767566452	640.13767566452
2	5619	641.9709725032	640.9709725032
2	5626	642.53794060884	641.53794060884
2	5652	648.95213998848	647.95213998848
2	5767	653.92064961948	652.92064961948
2	5782	656.31348001598	655.31348001598
2	5801	657.83453849088	656.83453849088
2	5807	658.45139591353	657.45139591353
2	5820	662.06730716391	661.06730716391
2	5851	667.66711123049	666.66711123049
2	5861	668.85005536317	667.85005536317
2	5880	674.22384046892	673.22384046892
2	5901	677.14169011432	676.14169011432
2	5906	677.32148033627	676.32148033627
2	5917	679.95420971283	678.95420971283
2	5933	683.66911958782	682.66911958782
2	5969	687.86672306191	686.86672306191
2	5982	689.87808161708	688.87808161708
2	6004	693.4242759325	692.4242759325
2	6019	695.00609792129	694.00609792129
2	6049	699.70493017211	698.70493017211
2	6214	710.59844721787	709.59844721787
2	6255	716.14908347431	715.14908347431
2	6280	719.23341524731	718.23341524731
2	6330	727.90404630536	726.90404630536
2	6342	731.29982826978	730.29982826978
2	6360	733.88063710127	732.88063710127
2	6416	742.15287621579	741.15287621579
2	6431	745.34387927715	744.34387927715
2	6458	748.20496570729	747.20496570729
3	160	8.43245585043	7.43245585043
3	1331	107.94548804815	106.94548804815
3	1999	162.23735224631	161.23735224631
3	2760	223.73282875342	222.73282875342
3	2920	238.02452484321	237.02452484321
3	3061	250.482635948	249.482635948
3	4597	462.1597842529	461.1597842529
3	5161	552.60448142248	551.60448142248
3	5231	569.30214546099	568.30214546099
4	160	8.43245585043	7.43245585043
4	224	16.58932087937	15.58932087937
4	236	18.11733536831	17.11733536831
4	280	24.26304862815	23.26304862815
4	366	31.67510652742	30.67510652742
4	378	32.47905787061	31.47905787061
4	402	34.38761016697	33.38761016697
4	467	40.78007940416	39.78007940416
4	496	44.51214532595	43.51214532595
4	705	54.98725453269	53.98725453269
4	714	56.29204263426	55.29204263426
4	932	76.6925214691	75.6925214691
4	1502	122.9991787088	121.9991787088
4	1671	137.74283101492	136.74283101492
4	1738	145.69097262518	144.69097262518
4	1916	152.96926424665	151.96926424665
4	2142	175.24628360865	174.24628360865
4	2338	193.16854316918	192.16854316918
4	2349	193.62799387172	192.62799387172
4	2357	194.05806038006	193.05806038006
4	2382	196.95514546933	195.95514546933
4	3385	277.01025874348	276.01025874348
4	3475	292.83802892064	291.83802892064
4	3634	310.44237197124	309.44237197124
4	3767	349.01342175531	348.01342175531
4	4639	473.98985121693	472.98985121693
4	4659	476.97265767019	475.97265767019
5	160	8.43245585043	7.43245585043
6	161	8.43245585043	1
6	225	16.58932087937	2
6	237	18.11733536831	3
6	281	24.26304862815	4
6	367	31.67510652742	5
6	379	32.47905787061	6
6	403	34.38761016697	7
6	455	39.3987441982	8
6	468	40.78007940416	9
6	497	44.51214532595	10
6	517	46.38975137709	11
6	706	54.98725453269	12
6	715	56.29204263426	13
6	770	62.41504334489	14
6	775	62.9562696929	15
6	809	65.11712823523	16
6	867	70.29173595462	17
6	927	75.92282159713	18
6	933	76.6925214691	19
6	968	79.95616135997	20
6	992	82.56366597236	21
6	996	82.87746116513	22
6	1015	85.09597855563	23
6	1085	92.04616845994	24
6	1115	95.28308106683	25
6	1136	96.85901641258	26
6	1150	97.9472843645	27
6	1171	99.46103371442	28
6	1304	105.54249783224	29
6	1318	106.72928861206	30
6	1332	107.94548804815	31
6	1351	110.21083894414	32
6	1399	114.19207461988	33
6	1437	116.5754920483	34
6	1462	118.70901018943	35
6	1494	121.84475428302	36
6	1503	122.9991787088	37
6	1507	123.07037684311	38
6	1523	126.12644358416	39
6	1582	131.16993260084	40
6	1628	134.29678684393	41
6	1646	135.44565069199	42
6	1656	135.8853393663	43
6	1672	137.74283101492	44
6	1713	142.63356268865	45
6	1720	143.13813582639	46
6	1739	145.69097262518	47
6	1761	148.63712751987	48
6	1775	149.97018786956	49
6	1891	151.01863739839	50
6	1917	152.96926424665	51
6	1931	153.89460638261	52
6	1983	160.77240971726	53
6	2000	162.23735224631	54
6	2027	165.17637016711	55
6	2034	165.31502013656	56
6	2043	166.02175264265	57
6	2068	168.17769712879	58
6	2085	170.52624293081	59
6	2118	173.1232618585	60
6	2143	175.24628360865	61
6	2161	178.08632199879	62
6	2184	180.1215008832	63
6	2188	180.24305741398	64
6	2218	182.08880369495	65
6	2289	188.15365463606	66
6	2296	188.62569869024	67
6	2300	188.75796579117	68
6	2304	189.47777318747	69
6	2322	190.7092728204	70
6	2328	191.54452133787	71
6	2339	193.16854316918	72
6	2350	193.62799387172	73
6	2354	193.76196699793	74
6	2358	194.05806038006	75
6	2367	195.42315077329	76
6	2383	196.95514546933	77
6	2396	197.97952153946	78
6	2404	198.54198847879	79
6	2519	202.38034761024	80
6	2533	203.43268812512	81
6	2562	204.71825620103	82
6	2569	205.09964441061	83
6	2577	205.58579542072	84
6	2640	212.1122185734	85
6	2673	214.59810101886	86
6	2699	218.83334292776	87
6	2716	220.54549679503	88
6	2720	220.90999826267	89
6	2729	222.09412118831	90
6	2757	223.69315130398	91
6	2761	223.73282875342	92
6	2796	225.72890112055	93
6	2822	227.66774223879	94
6	2836	228.96550274099	95
6	2840	229.05686154009	96
6	2872	232.20126183647	97
6	2890	235.02810397877	98
6	2900	235.87442326935	99
6	2917	237.83551498415	100
6	2921	238.02452484321	101
6	2925	238.14536049491	102
6	2936	238.67240625661	103
6	2968	242.57699114331	104
6	3018	245.9033951838	105
6	3036	248.1563246	106
6	3049	249.23727401177	107
6	3062	250.482635948	108
6	3169	253.13888774931	109
6	3190	256.08397558908	110
6	3200	256.77205916255	111
6	3217	257.87751393851	112
6	3243	260.35776100065	113
6	3271	262.41532537731	114
6	3285	264.42811426818	115
6	3301	266.55596794154	116
6	3316	267.86164394923	117
6	3386	277.01025874348	118
6	3402	278.41124797765	119
6	3406	278.64298912575	120
6	3432	285.06403806911	121
6	3467	290.75979293084	122
6	3476	292.83802892064	123
6	3491	297.55934187904	124
6	3506	299.59650988674	125
6	3513	300.01283046732	126
6	3635	310.44237197124	127
6	3652	314.32562512922	128
6	3672	316.74543827173	129
6	3705	332.16520230578	130
6	3739	345.51674330716	131
6	3753	347.22891690967	132
6	3768	349.01342175531	133
6	3773	349.29759303168	134
6	3781	350.25016741939	135
6	3881	352.81670699574	136
6	3899	355.35872714304	137
6	3908	358.04823723601	138
6	3917	359.34443430969	139
6	3940	363.41139772424	140
6	3962	369.57410036798	141
6	3974	371.46741802667	142
6	3989	373.10429088182	143
6	3995	373.50041468688	144
6	4030	376.21992122725	145
6	4044	379.33616907395	146
6	4056	381.81074704803	147
6	4072	386.79088357082	148
6	4089	393.71290506789	149
6	4099	395.2680879977	150
6	4108	396.40918350425	151
6	4121	398.1178082136	152
6	4244	408.17549320033	153
6	4259	413.87578668417	154
6	4271	415.62442686519	155
6	4279	416.07259411009	156
6	4287	416.84609334795	157
6	4311	422.41054435605	158
6	4315	423.41854687643	159
6	4324	425.48539528952	160
6	4334	428.10164528528	161
6	4364	434.47043840303	162
6	4372	435.87724758179	163
6	4380	437.46839729116	164
6	4391	439.07870415578	165
6	4401	441.15551225718	166
6	4411	443.00676228355	167
6	4423	445.23662324174	168
6	4435	446.59945099841	169
6	4441	447.59248780414	170
6	4552	453.29009470355	171
6	4582	459.60036548728	172
6	4598	462.1597842529	173
6	4605	462.97865645837	174
6	4624	468.55643850512	175
6	4640	473.98985121693	176
6	4650	475.28488915356	177
6	4660	476.97265767019	178
6	4667	478.46280188045	179
6	4692	486.04813619745	180
6	4704	488.98597277336	181
6	4718	491.95066478897	182
6	4725	492.3957163153	183
6	4737	493.93531934817	184
6	4741	494.356239141	185
6	4756	497.41081868243	186
6	4768	498.60079375619	187
6	4775	499.95454688535	188
6	4895	506.4876175846	189
6	4910	509.8063773753	190
6	4926	514.61810563685	191
6	4933	515.41216411375	192
6	4937	516.00134870795	193
6	4957	522.33373734463	194
6	4967	524.44597447624	195
6	4979	527.62481876179	196
6	5002	534.85097694736	197
6	5019	540.84208454566	198
6	5162	552.60448142248	199
6	5170	555.8127387782	200
6	5182	558.60837361769	201
6	5186	558.86086330343	202
6	5209	566.00213630584	203
6	5228	569.29331617643	204
6	5232	569.30214546099	205
6	5244	571.05879238867	206
6	5266	579.80652471053	207
6	5275	580.66580186658	208
6	5292	588.05089621565	209
6	5314	593.73465631333	210
6	5328	595.81286423717	211
6	5451	602.38527517978	212
6	5464	607.45452359066	213
6	5471	608.57709625613	214
6	5483	611.813719449	215
6	5557	628.93826402318	216
6	5579	632.6629508634	217
6	5599	638.00599798088	218
6	5613	641.13767566452	219
6	5620	641.9709725032	220
6	5627	642.53794060884	221
6	5653	648.95213998848	222
6	5768	653.92064961948	223
6	5783	656.31348001598	224
6	5802	657.83453849088	225
6	5808	658.45139591353	226
6	5821	662.06730716391	227
6	5852	667.66711123049	228
6	5862	668.85005536317	229
6	5881	674.22384046892	230
6	5902	677.14169011432	231
6	5907	677.32148033627	232
6	5918	679.95420971283	233
6	5934	683.66911958782	234
6	5970	687.86672306191	235
6	5983	689.87808161708	236
6	6005	693.4242759325	237
6	6020	695.00609792129	238
6	6050	699.70493017211	239
6	6215	710.59844721787	240
6	6256	716.14908347431	241
6	6281	719.23341524731	242
6	6331	727.90404630536	243
6	6343	731.29982826978	244
6	6361	733.88063710127	245
6	6417	742.15287621579	246
6	6432	745.34387927715	247
6	6459	748.20496570729	248
7	161	8.43245585043	1
7	225	16.58932087937	2
7	237	18.11733536831	3
7	281	24.26304862815	4
7	367	31.67510652742	5
7	379	32.47905787061	6
7	403	34.38761016697	7
7	455	39.3987441982	8
7	468	40.78007940416	9
7	497	44.51214532595	10
7	517	46.38975137709	11
7	706	54.98725453269	12
7	715	56.29204263426	13
7	770	62.41504334489	14
7	775	62.9562696929	15
7	809	65.11712823523	16
7	867	70.29173595462	17
7	927	75.92282159713	18
7	933	76.6925214691	19
7	968	79.95616135997	20
7	992	82.56366597236	21
7	996	82.87746116513	22
7	1015	85.09597855563	23
7	1085	92.04616845994	24
7	1115	95.28308106683	25
7	1136	96.85901641258	26
7	1150	97.9472843645	27
7	1171	99.46103371442	28
7	1304	105.54249783224	29
7	1318	106.72928861206	30
7	1332	107.94548804815	31
7	1351	110.21083894414	32
7	1399	114.19207461988	33
7	1437	116.5754920483	34
7	1462	118.70901018943	35
7	1494	121.84475428302	36
7	1503	122.9991787088	37
7	1507	123.07037684311	38
7	1523	126.12644358416	39
7	1582	131.16993260084	40
7	1628	134.29678684393	41
7	1646	135.44565069199	42
7	1656	135.8853393663	43
7	1672	137.74283101492	44
7	1713	142.63356268865	45
7	1720	143.13813582639	46
7	1739	145.69097262518	47
7	1761	148.63712751987	48
7	1775	149.97018786956	49
7	1891	151.01863739839	50
7	1917	152.96926424665	51
7	1931	153.89460638261	52
7	1983	160.77240971726	53
7	2000	162.23735224631	54
7	2027	165.17637016711	55
7	2034	165.31502013656	56
7	2043	166.02175264265	57
7	2068	168.17769712879	58
7	2085	170.52624293081	59
7	2118	173.1232618585	60
7	2143	175.24628360865	61
7	2161	178.08632199879	62
7	2184	180.1215008832	63
7	2188	180.24305741398	64
7	2218	182.08880369495	65
7	2289	188.15365463606	66
7	2296	188.62569869024	67
7	2300	188.75796579117	68
7	2304	189.47777318747	69
7	2322	190.7092728204	70
7	2328	191.54452133787	71
7	2339	193.16854316918	72
7	2350	193.62799387172	73
7	2354	193.76196699793	74
7	2358	194.05806038006	75
7	2367	195.42315077329	76
7	2383	196.95514546933	77
7	2396	197.97952153946	78
7	2404	198.54198847879	79
7	2519	202.38034761024	80
7	2533	203.43268812512	81
7	2562	204.71825620103	82
7	2569	205.09964441061	83
7	2577	205.58579542072	84
7	2640	212.1122185734	85
7	2673	214.59810101886	86
7	2699	218.83334292776	87
7	2716	220.54549679503	88
7	2720	220.90999826267	89
7	2729	222.09412118831	90
7	2757	223.69315130398	91
7	2761	223.73282875342	92
7	2796	225.72890112055	93
7	2822	227.66774223879	94
7	2836	228.96550274099	95
7	2840	229.05686154009	96
7	2872	232.20126183647	97
7	2890	235.02810397877	98
7	2900	235.87442326935	99
7	2917	237.83551498415	100
7	2921	238.02452484321	101
7	2925	238.14536049491	102
7	2936	238.67240625661	103
7	2968	242.57699114331	104
7	3018	245.9033951838	105
7	3036	248.1563246	106
7	3049	249.23727401177	107
7	3062	250.482635948	108
7	3169	253.13888774931	109
7	3190	256.08397558908	110
7	3200	256.77205916255	111
7	3217	257.87751393851	112
7	3243	260.35776100065	113
7	3271	262.41532537731	114
7	3285	264.42811426818	115
7	3301	266.55596794154	116
7	3316	267.86164394923	117
7	3386	277.01025874348	118
7	3402	278.41124797765	119
7	3406	278.64298912575	120
7	3432	285.06403806911	121
7	3467	290.75979293084	122
7	3476	292.83802892064	123
7	3491	297.55934187904	124
7	3506	299.59650988674	125
7	3513	300.01283046732	126
7	3635	310.44237197124	127
7	3652	314.32562512922	128
7	3672	316.74543827173	129
7	3705	332.16520230578	130
7	3739	345.51674330716	131
7	3753	347.22891690967	132
7	3768	349.01342175531	133
7	3773	349.29759303168	134
7	3781	350.25016741939	135
7	3881	352.81670699574	136
7	3899	355.35872714304	137
7	3908	358.04823723601	138
7	3917	359.34443430969	139
7	3940	363.41139772424	140
7	3962	369.57410036798	141
7	3974	371.46741802667	142
7	3989	373.10429088182	143
7	3995	373.50041468688	144
7	4030	376.21992122725	145
7	4044	379.33616907395	146
7	4056	381.81074704803	147
7	4072	386.79088357082	148
7	4089	393.71290506789	149
7	4099	395.2680879977	150
7	4108	396.40918350425	151
7	4121	398.1178082136	152
7	4244	408.17549320033	153
7	4259	413.87578668417	154
7	4271	415.62442686519	155
7	4279	416.07259411009	156
7	4287	416.84609334795	157
7	4311	422.41054435605	158
7	4315	423.41854687643	159
7	4324	425.48539528952	160
7	4334	428.10164528528	161
7	4364	434.47043840303	162
7	4372	435.87724758179	163
7	4380	437.46839729116	164
7	4391	439.07870415578	165
7	4401	441.15551225718	166
7	4411	443.00676228355	167
7	4423	445.23662324174	168
7	4435	446.59945099841	169
7	4441	447.59248780414	170
7	4552	453.29009470355	171
7	4582	459.60036548728	172
7	4598	462.1597842529	173
7	4605	462.97865645837	174
7	4624	468.55643850512	175
7	4640	473.98985121693	176
7	4650	475.28488915356	177
7	4660	476.97265767019	178
7	4667	478.46280188045	179
7	4692	486.04813619745	180
7	4704	488.98597277336	181
7	4718	491.95066478897	182
7	4725	492.3957163153	183
7	4737	493.93531934817	184
7	4741	494.356239141	185
7	4756	497.41081868243	186
7	4768	498.60079375619	187
7	4775	499.95454688535	188
7	4895	506.4876175846	189
7	4910	509.8063773753	190
7	4926	514.61810563685	191
7	4933	515.41216411375	192
7	4937	516.00134870795	193
7	4957	522.33373734463	194
7	4967	524.44597447624	195
7	4979	527.62481876179	196
7	5002	534.85097694736	197
7	5019	540.84208454566	198
7	5162	552.60448142248	199
7	5170	555.8127387782	200
7	5182	558.60837361769	201
7	5186	558.86086330343	202
7	5209	566.00213630584	203
7	5228	569.29331617643	204
7	5232	569.30214546099	205
7	5244	571.05879238867	206
7	5266	579.80652471053	207
7	5275	580.66580186658	208
7	5292	588.05089621565	209
7	5314	593.73465631333	210
7	5328	595.81286423717	211
7	5451	602.38527517978	212
7	5464	607.45452359066	213
7	5471	608.57709625613	214
7	5483	611.813719449	215
7	5557	628.93826402318	216
7	5579	632.6629508634	217
7	5599	638.00599798088	218
7	5613	641.13767566452	219
7	5620	641.9709725032	220
7	5627	642.53794060884	221
7	5653	648.95213998848	222
7	5768	653.92064961948	223
7	5783	656.31348001598	224
7	5802	657.83453849088	225
7	5808	658.45139591353	226
7	5821	662.06730716391	227
7	5852	667.66711123049	228
7	5862	668.85005536317	229
7	5881	674.22384046892	230
7	5902	677.14169011432	231
7	5907	677.32148033627	232
7	5918	679.95420971283	233
7	5934	683.66911958782	234
7	5970	687.86672306191	235
7	5983	689.87808161708	236
7	6005	693.4242759325	237
7	6020	695.00609792129	238
7	6050	699.70493017211	239
7	6215	710.59844721787	240
7	6256	716.14908347431	241
7	6281	719.23341524731	242
7	6331	727.90404630536	243
7	6343	731.29982826978	244
7	6361	733.88063710127	245
7	6417	742.15287621579	246
7	6432	745.34387927715	247
7	6459	748.20496570729	248
8	161	8.43245585043	1
8	225	16.58932087937	2
8	237	18.11733536831	3
8	281	24.26304862815	4
8	367	31.67510652742	5
8	379	32.47905787061	6
8	403	34.38761016697	7
8	455	39.3987441982	8
8	468	40.78007940416	9
8	497	44.51214532595	10
8	517	46.38975137709	11
8	706	54.98725453269	12
8	715	56.29204263426	13
8	770	62.41504334489	14
8	775	62.9562696929	15
8	809	65.11712823523	16
8	867	70.29173595462	17
8	927	75.92282159713	18
8	933	76.6925214691	19
8	968	79.95616135997	20
8	992	82.56366597236	21
8	996	82.87746116513	22
8	1015	85.09597855563	23
8	1085	92.04616845994	24
8	1115	95.28308106683	25
8	1136	96.85901641258	26
8	1150	97.9472843645	27
8	1171	99.46103371442	28
8	1304	105.54249783224	29
8	1318	106.72928861206	30
8	1332	107.94548804815	31
8	1351	110.21083894414	32
8	1399	114.19207461988	33
8	1437	116.5754920483	34
8	1462	118.70901018943	35
8	1494	121.84475428302	36
8	1503	122.9991787088	37
8	1507	123.07037684311	38
8	1523	126.12644358416	39
8	1582	131.16993260084	40
8	1628	134.29678684393	41
8	1646	135.44565069199	42
8	1656	135.8853393663	43
8	1672	137.74283101492	44
8	1713	142.63356268865	45
8	1720	143.13813582639	46
8	1739	145.69097262518	47
8	1761	148.63712751987	48
8	1775	149.97018786956	49
8	1891	151.01863739839	50
8	1917	152.96926424665	51
8	1931	153.89460638261	52
8	1983	160.77240971726	53
8	2000	162.23735224631	54
8	2027	165.17637016711	55
8	2034	165.31502013656	56
8	2043	166.02175264265	57
8	2068	168.17769712879	58
8	2085	170.52624293081	59
8	2118	173.1232618585	60
8	2143	175.24628360865	61
8	2161	178.08632199879	62
8	2184	180.1215008832	63
8	2188	180.24305741398	64
8	2218	182.08880369495	65
8	2289	188.15365463606	66
8	2296	188.62569869024	67
8	2300	188.75796579117	68
8	2304	189.47777318747	69
8	2322	190.7092728204	70
8	2328	191.54452133787	71
8	2339	193.16854316918	72
8	2350	193.62799387172	73
8	2354	193.76196699793	74
8	2358	194.05806038006	75
8	2367	195.42315077329	76
8	2383	196.95514546933	77
8	2396	197.97952153946	78
8	2404	198.54198847879	79
8	2519	202.38034761024	80
8	2533	203.43268812512	81
8	2562	204.71825620103	82
8	2569	205.09964441061	83
8	2577	205.58579542072	84
8	2640	212.1122185734	85
8	2673	214.59810101886	86
8	2699	218.83334292776	87
8	2716	220.54549679503	88
8	2720	220.90999826267	89
8	2729	222.09412118831	90
8	2757	223.69315130398	91
8	2761	223.73282875342	92
8	2796	225.72890112055	93
8	2822	227.66774223879	94
8	2836	228.96550274099	95
8	2840	229.05686154009	96
8	2872	232.20126183647	97
8	2890	235.02810397877	98
8	2900	235.87442326935	99
8	2917	237.83551498415	100
8	2921	238.02452484321	101
8	2925	238.14536049491	102
8	2936	238.67240625661	103
8	2968	242.57699114331	104
8	3018	245.9033951838	105
8	3036	248.1563246	106
8	3049	249.23727401177	107
8	3062	250.482635948	108
8	3169	253.13888774931	109
8	3190	256.08397558908	110
8	3200	256.77205916255	111
8	3217	257.87751393851	112
8	3243	260.35776100065	113
8	3271	262.41532537731	114
8	3285	264.42811426818	115
8	3301	266.55596794154	116
8	3316	267.86164394923	117
8	3386	277.01025874348	118
8	3402	278.41124797765	119
8	3406	278.64298912575	120
8	3432	285.06403806911	121
8	3467	290.75979293084	122
8	3476	292.83802892064	123
8	3491	297.55934187904	124
8	3506	299.59650988674	125
8	3513	300.01283046732	126
8	3635	310.44237197124	127
8	3652	314.32562512922	128
8	3672	316.74543827173	129
8	3705	332.16520230578	130
8	3739	345.51674330716	131
8	3753	347.22891690967	132
8	3768	349.01342175531	133
8	3773	349.29759303168	134
8	3781	350.25016741939	135
8	3881	352.81670699574	136
8	3899	355.35872714304	137
8	3908	358.04823723601	138
8	3917	359.34443430969	139
8	3940	363.41139772424	140
8	3962	369.57410036798	141
8	3974	371.46741802667	142
8	3989	373.10429088182	143
8	3995	373.50041468688	144
8	4030	376.21992122725	145
8	4044	379.33616907395	146
8	4056	381.81074704803	147
8	4072	386.79088357082	148
8	4089	393.71290506789	149
8	4099	395.2680879977	150
8	4108	396.40918350425	151
8	4121	398.1178082136	152
8	4244	408.17549320033	153
8	4259	413.87578668417	154
8	4271	415.62442686519	155
8	4279	416.07259411009	156
8	4287	416.84609334795	157
8	4311	422.41054435605	158
8	4315	423.41854687643	159
8	4324	425.48539528952	160
8	4334	428.10164528528	161
8	4364	434.47043840303	162
8	4372	435.87724758179	163
8	4380	437.46839729116	164
8	4391	439.07870415578	165
8	4401	441.15551225718	166
8	4411	443.00676228355	167
8	4423	445.23662324174	168
8	4435	446.59945099841	169
8	4441	447.59248780414	170
8	4552	453.29009470355	171
8	4582	459.60036548728	172
8	4598	462.1597842529	173
8	4605	462.97865645837	174
8	4624	468.55643850512	175
8	4640	473.98985121693	176
8	4650	475.28488915356	177
8	4660	476.97265767019	178
8	4667	478.46280188045	179
8	4692	486.04813619745	180
8	4704	488.98597277336	181
8	4718	491.95066478897	182
8	4725	492.3957163153	183
8	4737	493.93531934817	184
8	4741	494.356239141	185
8	4756	497.41081868243	186
8	4768	498.60079375619	187
8	4775	499.95454688535	188
8	4895	506.4876175846	189
8	4910	509.8063773753	190
8	4926	514.61810563685	191
8	4933	515.41216411375	192
8	4937	516.00134870795	193
8	4957	522.33373734463	194
8	4967	524.44597447624	195
8	4979	527.62481876179	196
8	5002	534.85097694736	197
8	5019	540.84208454566	198
8	5162	552.60448142248	199
8	5170	555.8127387782	200
8	5182	558.60837361769	201
8	5186	558.86086330343	202
8	5209	566.00213630584	203
8	5228	569.29331617643	204
8	5232	569.30214546099	205
8	5244	571.05879238867	206
8	5266	579.80652471053	207
8	5275	580.66580186658	208
8	5292	588.05089621565	209
8	5314	593.73465631333	210
8	5328	595.81286423717	211
8	5451	602.38527517978	212
8	5464	607.45452359066	213
8	5471	608.57709625613	214
8	5483	611.813719449	215
8	5557	628.93826402318	216
8	5579	632.6629508634	217
8	5599	638.00599798088	218
8	5613	641.13767566452	219
8	5620	641.9709725032	220
8	5627	642.53794060884	221
8	5653	648.95213998848	222
8	5768	653.92064961948	223
8	5783	656.31348001598	224
8	5802	657.83453849088	225
8	5808	658.45139591353	226
8	5821	662.06730716391	227
8	5852	667.66711123049	228
8	5862	668.85005536317	229
8	5881	674.22384046892	230
8	5902	677.14169011432	231
8	5907	677.32148033627	232
8	5918	679.95420971283	233
8	5934	683.66911958782	234
8	5970	687.86672306191	235
8	5983	689.87808161708	236
8	6005	693.4242759325	237
8	6020	695.00609792129	238
8	6050	699.70493017211	239
8	6215	710.59844721787	240
8	6256	716.14908347431	241
8	6281	719.23341524731	242
8	6331	727.90404630536	243
8	6343	731.29982826978	244
8	6361	733.88063710127	245
8	6417	742.15287621579	246
8	6432	745.34387927715	247
8	6459	748.20496570729	248
9	224	16.58932087937	180
9	454	39.3987441982	180
9	808	65.11712823523	180
9	995	82.87746116513	180
9	1135	96.85901641258	180
9	1398	114.19207461988	180
9	1522	126.12644358416	180
9	1774	149.97018786956	180
9	2067	168.17769712879	180
9	2288	188.15365463606	180
9	2532	203.43268812512	180
9	2756	223.69315130398	180
9	2935	238.67240625661	180
9	3189	256.08397558908	180
9	4310	422.41054435605	180
10	224	16.58932087937	15.58932087937
10	454	39.3987441982	38.3987441982
10	808	65.11712823523	64.11712823523
10	995	82.87746116513	81.87746116513
10	1135	96.85901641258	95.85901641258
10	1398	114.19207461988	113.19207461988
10	1522	126.12644358416	125.12644358416
10	1774	149.97018786956	148.97018786956
10	2067	168.17769712879	167.17769712879
10	2288	188.15365463606	187.15365463606
10	2532	203.43268812512	202.43268812512
10	2756	223.69315130398	222.69315130398
10	2935	238.67240625661	237.67240625661
10	3189	256.08397558908	255.08397558908
10	4310	422.41054435605	421.41054435605
11	224	16.58932087937	15.58932087937
12	236	18.11733536831	180
12	1014	85.09597855563	180
12	1149	97.9472843645	180
12	1436	116.5754920483	180
12	1627	134.29678684393	180
12	1890	151.01863739839	180
12	2084	170.52624293081	180
12	2321	190.7092728204	180
12	2561	204.71825620103	180
12	2719	220.90999826267	180
12	2871	232.20126183647	180
12	4581	459.60036548728	180
12	4649	475.28488915356	180
12	4936	516.00134870795	180
13	236	18.11733536831	17.11733536831
13	1014	85.09597855563	84.09597855563
13	1149	97.9472843645	96.9472843645
13	1436	116.5754920483	115.5754920483
13	1627	134.29678684393	133.29678684393
13	1890	151.01863739839	150.01863739839
13	2084	170.52624293081	169.52624293081
13	2321	190.7092728204	189.7092728204
13	2561	204.71825620103	203.71825620103
13	2719	220.90999826267	219.90999826267
13	2871	232.20126183647	231.20126183647
13	4581	459.60036548728	458.60036548728
13	4649	475.28488915356	474.28488915356
13	4936	516.00134870795	515.00134870795
14	236	18.11733536831	17.11733536831
15	280	24.26304862815	180
15	774	62.9562696929	180
15	2403	198.54198847879	180
15	2916	237.83551498415	180
15	3505	299.59650988674	180
16	280	24.26304862815	23.26304862815
16	774	62.9562696929	61.9562696929
16	2403	198.54198847879	197.54198847879
16	2916	237.83551498415	236.83551498415
16	3505	299.59650988674	298.59650988674
17	280	24.26304862815	23.26304862815
18	366	31.67510652742	180
18	1303	105.54249783224	180
18	2728	222.09412118831	180
18	4071	386.79088357082	180
18	4120	398.1178082136	180
18	4956	522.33373734463	180
18	5612	641.13767566452	180
18	5801	657.83453849088	180
19	366	31.67510652742	30.67510652742
19	1303	105.54249783224	104.54249783224
19	2728	222.09412118831	221.09412118831
19	4071	386.79088357082	385.79088357082
19	4120	398.1178082136	397.1178082136
19	4956	522.33373734463	521.33373734463
19	5612	641.13767566452	640.13767566452
19	5801	657.83453849088	656.83453849088
20	366	31.67510652742	30.67510652742
21	378	32.47905787061	180
21	516	46.38975137709	180
21	866	70.29173595462	180
21	1114	95.28308106683	180
21	1317	106.72928861206	180
21	1461	118.70901018943	180
21	1655	135.8853393663	180
21	1930	153.89460638261	180
21	2033	165.31502013656	180
21	2187	180.24305741398	180
21	2518	202.38034761024	180
21	2698	218.83334292776	180
21	2839	229.05686154009	180
21	3168	253.13888774931	180
21	3973	371.46741802667	180
21	4323	425.48539528952	180
21	4390	439.07870415578	180
21	4740	494.356239141	180
22	378	32.47905787061	31.47905787061
22	516	46.38975137709	45.38975137709
22	866	70.29173595462	69.29173595462
22	1114	95.28308106683	94.28308106683
22	1317	106.72928861206	105.72928861206
22	1461	118.70901018943	117.70901018943
22	1655	135.8853393663	134.8853393663
22	1930	153.89460638261	152.89460638261
22	2033	165.31502013656	164.31502013656
22	2187	180.24305741398	179.24305741398
22	2518	202.38034761024	201.38034761024
22	2698	218.83334292776	217.83334292776
22	2839	229.05686154009	228.05686154009
22	3168	253.13888774931	252.13888774931
22	3973	371.46741802667	370.46741802667
22	4323	425.48539528952	424.48539528952
22	4390	439.07870415578	438.07870415578
22	4740	494.356239141	493.356239141
23	378	32.47905787061	31.47905787061
24	402	34.38761016697	180
24	769	62.41504334489	180
24	1719	143.13813582639	180
24	1982	160.77240971726	180
24	2160	178.08632199879	180
24	2353	193.76196699793	180
24	2639	212.1122185734	180
24	2821	227.66774223879	180
24	2924	238.14536049491	180
24	3315	267.86164394923	180
24	4270	415.62442686519	180
24	4422	445.23662324174	180
24	4925	514.61810563685	180
25	402	34.38761016697	33.38761016697
25	769	62.41504334489	61.41504334489
25	1719	143.13813582639	142.13813582639
25	1982	160.77240971726	159.77240971726
25	2160	178.08632199879	177.08632199879
25	2353	193.76196699793	192.76196699793
25	2639	212.1122185734	211.1122185734
25	2821	227.66774223879	226.66774223879
25	2924	238.14536049491	237.14536049491
25	3315	267.86164394923	266.86164394923
25	4270	415.62442686519	414.62442686519
25	4422	445.23662324174	444.23662324174
25	4925	514.61810563685	513.61810563685
26	402	34.38761016697	33.38761016697
27	467	40.78007940416	180
27	991	82.56366597236	180
27	1581	131.16993260084	180
27	2117	173.1232618585	180
27	2303	189.47777318747	180
27	4909	509.8063773753	180
28	467	40.78007940416	39.78007940416
28	991	82.56366597236	81.56366597236
28	1581	131.16993260084	130.16993260084
28	2117	173.1232618585	172.1232618585
28	2303	189.47777318747	188.47777318747
28	4909	509.8063773753	508.8063773753
29	467	40.78007940416	39.78007940416
30	496	44.51214532595	180
30	967	79.95616135997	180
30	1170	99.46103371442	180
30	1350	110.21083894414	180
30	2042	166.02175264265	180
30	2183	180.1215008832	180
30	2568	205.09964441061	180
30	2795	225.72890112055	180
30	3017	245.9033951838	180
30	3284	264.42811426818	180
30	3405	278.64298912575	180
30	3490	297.55934187904	180
30	3651	314.32562512922	180
30	3916	359.34443430969	180
30	4088	393.71290506789	180
30	4434	446.59945099841	180
30	4623	468.55643850512	180
30	4724	492.3957163153	180
31	496	44.51214532595	43.51214532595
31	967	79.95616135997	78.95616135997
31	1170	99.46103371442	98.46103371442
31	1350	110.21083894414	109.21083894414
31	2042	166.02175264265	165.02175264265
31	2183	180.1215008832	179.1215008832
31	2568	205.09964441061	204.09964441061
31	2795	225.72890112055	224.72890112055
31	3017	245.9033951838	244.9033951838
31	3284	264.42811426818	263.42811426818
31	3405	278.64298912575	277.64298912575
31	3490	297.55934187904	296.55934187904
31	3651	314.32562512922	313.32562512922
31	3916	359.34443430969	358.34443430969
31	4088	393.71290506789	392.71290506789
31	4434	446.59945099841	445.59945099841
31	4623	468.55643850512	467.55643850512
31	4724	492.3957163153	491.3957163153
32	496	44.51214532595	43.51214532595
33	705	54.98725453269	180
33	926	75.92282159713	180
33	1493	121.84475428302	180
33	1712	142.63356268865	180
33	2026	165.17637016711	180
33	2295	188.62569869024	180
33	2835	228.96550274099	180
33	3048	249.23727401177	180
33	3270	262.41532537731	180
33	3780	350.25016741939	180
33	4107	396.40918350425	180
33	4286	416.84609334795	180
33	4363	434.47043840303	180
33	4691	486.04813619745	180
33	4894	506.4876175846	180
33	4978	527.62481876179	180
33	5181	558.60837361769	180
33	5327	595.81286423717	180
34	705	54.98725453269	53.98725453269
34	926	75.92282159713	74.92282159713
34	1493	121.84475428302	120.84475428302
34	1712	142.63356268865	141.63356268865
34	2026	165.17637016711	164.17637016711
34	2295	188.62569869024	187.62569869024
34	2835	228.96550274099	227.96550274099
34	3048	249.23727401177	248.23727401177
34	3270	262.41532537731	261.41532537731
34	3780	350.25016741939	349.25016741939
34	4107	396.40918350425	395.40918350425
34	4286	416.84609334795	415.84609334795
34	4363	434.47043840303	433.47043840303
34	4691	486.04813619745	485.04813619745
34	4894	506.4876175846	505.4876175846
34	4978	527.62481876179	526.62481876179
34	5181	558.60837361769	557.60837361769
34	5327	595.81286423717	594.81286423717
35	705	54.98725453269	53.98725453269
36	714	56.29204263426	180
36	1760	148.63712751987	180
36	3939	363.41139772424	180
36	5265	579.80652471053	180
37	714	56.29204263426	55.29204263426
37	1760	148.63712751987	147.63712751987
37	3939	363.41139772424	362.41139772424
37	5265	579.80652471053	578.80652471053
38	714	56.29204263426	55.29204263426
39	932	76.6925214691	180
39	1084	92.04616845994	180
39	1506	123.07037684311	180
39	1645	135.44565069199	180
39	2299	188.75796579117	180
39	2967	242.57699114331	180
39	3772	349.29759303168	180
39	4055	381.81074704803	180
39	5906	677.32148033627	180
40	932	76.6925214691	75.6925214691
40	1084	92.04616845994	91.04616845994
40	1506	123.07037684311	122.07037684311
40	1645	135.44565069199	134.44565069199
40	2299	188.75796579117	187.75796579117
40	2967	242.57699114331	241.57699114331
40	3772	349.29759303168	348.29759303168
40	4055	381.81074704803	380.81074704803
40	5906	677.32148033627	676.32148033627
41	932	76.6925214691	75.6925214691
42	1502	122.9991787088	180
42	2327	191.54452133787	180
42	3880	352.81670699574	180
42	6214	710.59844721787	180
42	6342	731.29982826978	180
43	1502	122.9991787088	121.9991787088
43	2327	191.54452133787	190.54452133787
43	3880	352.81670699574	351.81670699574
43	6214	710.59844721787	709.59844721787
43	6342	731.29982826978	730.29982826978
44	1502	122.9991787088	121.9991787088
45	1671	137.74283101492	180
45	2366	195.42315077329	180
45	3401	278.41124797765	180
45	3752	347.22891690967	180
45	5274	580.66580186658	180
45	5982	689.87808161708	180
46	1671	137.74283101492	136.74283101492
46	2366	195.42315077329	194.42315077329
46	3401	278.41124797765	277.41124797765
46	3752	347.22891690967	346.22891690967
46	5274	580.66580186658	579.66580186658
46	5982	689.87808161708	688.87808161708
47	1671	137.74283101492	136.74283101492
48	1738	145.69097262518	180
48	2217	182.08880369495	180
48	3035	248.1563246	180
48	3242	260.35776100065	180
48	3994	373.50041468688	180
48	4098	395.2680879977	180
48	5243	571.05879238867	180
49	1738	145.69097262518	144.69097262518
49	2217	182.08880369495	181.08880369495
49	3035	248.1563246	247.1563246
49	3242	260.35776100065	259.35776100065
49	3994	373.50041468688	372.50041468688
49	4098	395.2680879977	394.2680879977
49	5243	571.05879238867	570.05879238867
50	1738	145.69097262518	144.69097262518
51	1916	152.96926424665	180
51	5185	558.86086330343	180
52	1916	152.96926424665	151.96926424665
52	5185	558.86086330343	557.86086330343
53	1916	152.96926424665	151.96926424665
54	2142	175.24628360865	180
54	2395	197.97952153946	180
54	2672	214.59810101886	180
54	2889	235.02810397877	180
54	3216	257.87751393851	180
54	3466	290.75979293084	180
54	3738	345.51674330716	180
54	3988	373.10429088182	180
54	4410	443.00676228355	180
55	2142	175.24628360865	174.24628360865
55	2395	197.97952153946	196.97952153946
55	2672	214.59810101886	213.59810101886
55	2889	235.02810397877	234.02810397877
55	3216	257.87751393851	256.87751393851
55	3466	290.75979293084	289.75979293084
55	3738	345.51674330716	344.51674330716
55	3988	373.10429088182	372.10429088182
55	4410	443.00676228355	442.00676228355
56	2142	175.24628360865	174.24628360865
57	2338	193.16854316918	180
57	3300	266.55596794154	180
57	3431	285.06403806911	180
57	4551	453.29009470355	180
57	4767	498.60079375619	180
57	5169	555.8127387782	180
57	5313	593.73465631333	180
57	6004	693.4242759325	180
57	6330	727.90404630536	180
58	2338	193.16854316918	192.16854316918
58	3300	266.55596794154	265.55596794154
58	3431	285.06403806911	284.06403806911
58	4551	453.29009470355	452.29009470355
58	4767	498.60079375619	497.60079375619
58	5169	555.8127387782	554.8127387782
58	5313	593.73465631333	592.73465631333
58	6004	693.4242759325	692.4242759325
58	6330	727.90404630536	726.90404630536
59	2338	193.16854316918	192.16854316918
60	2349	193.62799387172	180
60	2576	205.58579542072	180
60	4379	437.46839729116	180
60	4666	478.46280188045	180
60	4774	499.95454688535	180
60	5450	602.38527517978	180
61	2349	193.62799387172	192.62799387172
61	2576	205.58579542072	204.58579542072
61	4379	437.46839729116	436.46839729116
61	4666	478.46280188045	477.46280188045
61	4774	499.95454688535	498.95454688535
61	5450	602.38527517978	601.38527517978
62	2349	193.62799387172	192.62799387172
63	2357	194.05806038006	180
63	3512	300.01283046732	180
63	3704	332.16520230578	180
63	3898	355.35872714304	180
63	4043	379.33616907395	180
63	5001	534.85097694736	180
63	5482	611.813719449	180
63	5782	656.31348001598	180
63	5861	668.85005536317	180
63	5969	687.86672306191	180
63	6280	719.23341524731	180
63	6360	733.88063710127	180
63	6458	748.20496570729	180
64	2357	194.05806038006	193.05806038006
64	3512	300.01283046732	299.01283046732
64	3704	332.16520230578	331.16520230578
64	3898	355.35872714304	354.35872714304
64	4043	379.33616907395	378.33616907395
64	5001	534.85097694736	533.85097694736
64	5482	611.813719449	610.813719449
64	5782	656.31348001598	655.31348001598
64	5861	668.85005536317	667.85005536317
64	5969	687.86672306191	686.86672306191
64	6280	719.23341524731	718.23341524731
64	6360	733.88063710127	732.88063710127
64	6458	748.20496570729	747.20496570729
65	2357	194.05806038006	193.05806038006
66	2382	196.95514546933	180
66	2715	220.54549679503	180
66	2899	235.87442326935	180
66	3199	256.77205916255	180
66	4029	376.21992122725	180
66	4278	416.07259411009	180
66	4400	441.15551225718	180
66	4604	462.97865645837	180
66	4736	493.93531934817	180
66	5820	662.06730716391	180
66	5933	683.66911958782	180
67	2382	196.95514546933	195.95514546933
67	2715	220.54549679503	219.54549679503
67	2899	235.87442326935	234.87442326935
67	3199	256.77205916255	255.77205916255
67	4029	376.21992122725	375.21992122725
67	4278	416.07259411009	415.07259411009
67	4400	441.15551225718	440.15551225718
67	4604	462.97865645837	461.97865645837
67	4736	493.93531934817	492.93531934817
67	5820	662.06730716391	661.06730716391
67	5933	683.66911958782	682.66911958782
68	2382	196.95514546933	195.95514546933
69	3385	277.01025874348	180
69	4258	413.87578668417	180
69	5767	653.92064961948	180
69	5851	667.66711123049	180
70	3385	277.01025874348	276.01025874348
70	4258	413.87578668417	412.87578668417
70	5767	653.92064961948	652.92064961948
70	5851	667.66711123049	666.66711123049
71	3385	277.01025874348	276.01025874348
72	3475	292.83802892064	180
72	3671	316.74543827173	180
72	4371	435.87724758179	180
72	4703	488.98597277336	180
72	4966	524.44597447624	180
72	5917	679.95420971283	180
72	6431	745.34387927715	180
73	3475	292.83802892064	291.83802892064
73	3671	316.74543827173	315.74543827173
73	4371	435.87724758179	434.87724758179
73	4703	488.98597277336	487.98597277336
73	4966	524.44597447624	523.44597447624
73	5917	679.95420971283	678.95420971283
73	6431	745.34387927715	744.34387927715
74	3475	292.83802892064	291.83802892064
75	3634	310.44237197124	180
75	3907	358.04823723601	180
75	3961	369.57410036798	180
75	4314	423.41854687643	180
75	4932	515.41216411375	180
75	5578	632.6629508634	180
75	6416	742.15287621579	180
76	3634	310.44237197124	309.44237197124
76	3907	358.04823723601	357.04823723601
76	3961	369.57410036798	368.57410036798
76	4314	423.41854687643	422.41854687643
76	4932	515.41216411375	514.41216411375
76	5578	632.6629508634	631.6629508634
76	6416	742.15287621579	741.15287621579
77	3634	310.44237197124	309.44237197124
78	3767	349.01342175531	180
78	4243	408.17549320033	180
78	4333	428.10164528528	180
78	4440	447.59248780414	180
78	4717	491.95066478897	180
78	5018	540.84208454566	180
78	5227	569.29331617643	180
78	5463	607.45452359066	180
78	5626	642.53794060884	180
78	5807	658.45139591353	180
78	5901	677.14169011432	180
78	6049	699.70493017211	180
79	3767	349.01342175531	348.01342175531
79	4243	408.17549320033	407.17549320033
79	4333	428.10164528528	427.10164528528
79	4440	447.59248780414	446.59248780414
79	4717	491.95066478897	490.95066478897
79	5018	540.84208454566	539.84208454566
79	5227	569.29331617643	568.29331617643
79	5463	607.45452359066	606.45452359066
79	5626	642.53794060884	641.53794060884
79	5807	658.45139591353	657.45139591353
79	5901	677.14169011432	676.14169011432
79	6049	699.70493017211	698.70493017211
80	3767	349.01342175531	348.01342175531
81	4639	473.98985121693	180
81	4755	497.41081868243	180
81	5556	628.93826402318	180
81	5619	641.9709725032	180
81	5880	674.22384046892	180
81	6019	695.00609792129	180
81	6255	716.14908347431	180
82	4639	473.98985121693	472.98985121693
82	4755	497.41081868243	496.41081868243
82	5556	628.93826402318	627.93826402318
82	5619	641.9709725032	640.9709725032
82	5880	674.22384046892	673.22384046892
82	6019	695.00609792129	694.00609792129
82	6255	716.14908347431	715.14908347431
83	4639	473.98985121693	472.98985121693
84	4659	476.97265767019	180
84	5208	566.00213630584	180
84	5291	588.05089621565	180
84	5470	608.57709625613	180
84	5598	638.00599798088	180
84	5652	648.95213998848	180
85	4659	476.97265767019	475.97265767019
85	5208	566.00213630584	565.00213630584
85	5291	588.05089621565	587.05089621565
85	5470	608.57709625613	607.57709625613
85	5598	638.00599798088	637.00599798088
85	5652	648.95213998848	647.95213998848
86	4659	476.97265767019	475.97265767019

