file 72951 1780691901                                           
version 3
run General-8-20260605-22:38:18-1048198
attr configname General
attr datetime 20260605-22:38:18
attr datetimef 20260605-223818
attr experiment General
attr inifile Test_MLModel_1.ini
attr iterationvars $0=76328
attr iterationvarsd 76328
attr iterationvarsf 76328-
attr measurement $0=76328
attr network Florasat.Test_Individual.Florasat_Individual_Sats
attr processid 1048198
attr repetition 8
attr replication #8
attr resultdir results
attr runnumber 8
attr seedset 8
config *.satellite[0].NoradModule.raan 185
config *.stats_altitude 670
config *.stats_raan 185
config image-path ../../images:../../../../samples/inet4.5_2/images
config network Florasat.Test_Individual.Florasat_Individual_Sats
config rng-class cMersenneTwister
config *.**.result-recording-modes -
config **.result-recording-modes -
config **.statistic-recording true
config **.scalar-recording true
config **.vector-recording true
config **.vector-record-eventnumbers true
config repeat 10
config seed-0-mt 76328
config sim-time-limit 749s
config simtime-resolution -11
config **.stats_altitude 670
config **.stats_raan 185
config *.radioMedium.backgroundNoise.power -110dBm
config *.radioMedium.mediumLimitCache.centerFrequency 868MHz
config *.radioMedium.mediumLimitCache.maxTransmissionDuration 4s
config *.radioMedium.mediumLimitCache.minInterferenceTime 0s
config **.numSatellites 1
config *.satellite[*].mobilityType "\"Sat_Mob_SatelliteMobility_Standalone\""
config *.satellite[*].noradModuleType "\"Sat_Mob_NoradA\""
config **.satellite[*].**.initFromDisplayString false
config *.satellite[*].mobility.faceForward true
config *.satellite[*].mobility.updateInterval 20s
config *.satellite[*].NoradModule.satName "\"FLoRaSat\""
config *.satellite[*].NoradModule.satIndex -1
config *.satellite[*].NoradModule.baseYear 20
config *.satellite[*].NoradModule.baseDay 1.5
config *.satellite[*].NoradModule.planes 1
config *.satellite[*].NoradModule.satPerPlane 1
config *.satellite[*].NoradModule.eccentricity 0.000001
config *.satellite[*].NoradModule.inclination 98
config *.satellite[*].NoradModule.altitude 670
config *.satellite[0].NoradModule.raan 185
config *.satellite[0].NoradModule.meanAnomaly 195
config *.satellite[*].phyDSL.radio.receiver.enableCollisionOverlap true
config *.satellite[*].phyDSL.radio.receiver.minCollisionOverlap 0s
config *.satellite[*].phyDSL.radio.antenna.typename ConstantGainAntenna
config *.satellite[*].phyDSL.radio.antenna.mobilityModule "\"^.^.^.mobility\""
config *.satellite[*].phyISL.radio.antenna.mobilityModule "\"^.^.^.mobility\""
config *.satellite[*].phyGSL.radio.antenna.mobilityModule "\"^.^.^.mobility\""
config *.satellite[*].phyDSL.radio.antenna.gain 12dB
config *.satellite[*].net.routingType "\"Null_Routing\""
config *.terminal[*].net.routingType "\"Ter_Null_Routing\""
config *.**.numGroundLinks 40
config *.satellite[*].**.interfaceTableModule "\"\""
config **.radioMedium.typename LoRaMedium
config **.radioMedium.analogModel.typename LoRaAnalogModel
config **.intraPlaneIslDisabled false
config **.interPlaneIslDisabled false
config **.numTerminals 30
config *.terminal[*].phy.radio.antenna.mobilityModule "\"^.^.^.mob\""
config *.terminal[*].dlk.mac.interfaceTableModule "\"\""
config *.terminal[*].dlk.energySourceModule "\"\""
config *.terminal[*].dlk.mac.LoRaTP "intuniform(12, 14)"
config *.terminal[*].dlk.mac.LoRaSF "intuniform(10, 12)"
config *.terminal[*].dlk.mac.useMLBox true
config *.terminal[*].dlk.mac.mlBox.modelPath "\"/home/ylnner/Documents/omnet++/omnetpp-6.3.0/projects/florasat_v4_ult_routing/simulations/Test_Individual/mlmodels/bilstm_scripted.pt\""
config **.numberOfPacketsToSend 0
config **.timeToFirstPacket 1s
config **.timeToNextPacket 50s
config *.terminal[0].mob.radius 0.0
config *.terminal[0].mob.centerLatitude 54.978
config *.terminal[0].mob.centerLongitude -1.617
config *.terminal[1].mob.radius 0.0
config *.terminal[1].mob.centerLatitude 52.630
config *.terminal[1].mob.centerLongitude -1.139
config *.terminal[2].mob.radius 0.0
config *.terminal[2].mob.centerLatitude 52.612
config *.terminal[2].mob.centerLongitude -6.295
config *.terminal[3].mob.radius 0.0
config *.terminal[3].mob.centerLatitude 47.243
config *.terminal[3].mob.centerLongitude 6.024
config *.terminal[4].mob.radius 0.0
config *.terminal[4].mob.centerLatitude 43.610
config *.terminal[4].mob.centerLongitude 3.876
config *.terminal[5].mob.radius 0.0
config *.terminal[5].mob.centerLatitude 49.443
config *.terminal[5].mob.centerLongitude 1.099
config *.terminal[6].mob.radius 0.0
config *.terminal[6].mob.centerLatitude 37.992
config *.terminal[6].mob.centerLongitude -1.130
config *.terminal[7].mob.radius 0.0
config *.terminal[7].mob.centerLatitude 40.965
config *.terminal[7].mob.centerLongitude -5.664
config *.terminal[8].mob.radius 0.0
config *.terminal[8].mob.centerLatitude 40.657
config *.terminal[8].mob.centerLongitude -7.914
config *.terminal[9].mob.radius 0.0
config *.terminal[9].mob.centerLatitude 51.340
config *.terminal[9].mob.centerLongitude 12.373
config *.terminal[10].mob.radius 0.0
config *.terminal[10].mob.centerLatitude 51.455
config *.terminal[10].mob.centerLongitude 7.011
config *.terminal[11].mob.radius 0.0
config *.terminal[11].mob.centerLatitude 49.452
config *.terminal[11].mob.centerLongitude 11.076
config *.terminal[12].mob.radius 0.0
config *.terminal[12].mob.centerLatitude 43.769
config *.terminal[12].mob.centerLongitude 11.255
config *.terminal[13].mob.radius 0.0
config *.terminal[13].mob.centerLatitude 41.117
config *.terminal[13].mob.centerLongitude 16.871
config *.terminal[14].mob.radius 0.0
config *.terminal[14].mob.centerLatitude 52.132
config *.terminal[14].mob.centerLongitude 5.291
config *.terminal[15].mob.radius 0.0
config *.terminal[15].mob.centerLatitude 50.411
config *.terminal[15].mob.centerLongitude 4.444
config *.terminal[16].mob.radius 0.0
config *.terminal[16].mob.centerLatitude 47.559
config *.terminal[16].mob.centerLongitude 7.588
config *.terminal[17].mob.radius 0.0
config *.terminal[17].mob.centerLatitude 55.403
config *.terminal[17].mob.centerLongitude 10.402
config *.terminal[18].mob.radius 0.0
config *.terminal[18].mob.centerLatitude 59.858
config *.terminal[18].mob.centerLongitude 17.638
config *.terminal[19].mob.radius 0.0
config *.terminal[19].mob.centerLatitude 60.451
config *.terminal[19].mob.centerLongitude 22.266
config *.terminal[20].mob.radius 0.0
config *.terminal[20].mob.centerLatitude 56.325
config *.terminal[20].mob.centerLongitude 22.349
config *.terminal[21].mob.radius 0.0
config *.terminal[21].mob.centerLatitude 49.883
config *.terminal[21].mob.centerLongitude 18.568
config *.terminal[22].mob.radius 0.0
config *.terminal[22].mob.centerLatitude 47.531
config *.terminal[22].mob.centerLongitude 21.627
config *.terminal[23].mob.radius 0.0
config *.terminal[23].mob.centerLatitude 44.179
config *.terminal[23].mob.centerLongitude 28.649
config *.terminal[24].mob.radius 0.0
config *.terminal[24].mob.centerLatitude 45.327
config *.terminal[24].mob.centerLongitude 14.442
config *.terminal[25].mob.radius 0.0
config *.terminal[25].mob.centerLatitude 40.694
config *.terminal[25].mob.centerLongitude 30.400
config *.terminal[26].mob.radius 0.0
config *.terminal[26].mob.centerLatitude 37.066
config *.terminal[26].mob.centerLongitude 37.383
config *.terminal[27].mob.radius 0.0
config *.terminal[27].mob.centerLatitude 64.836
config *.terminal[27].mob.centerLongitude -23.708
config *.terminal[28].mob.radius 0.0
config *.terminal[28].mob.centerLatitude 28.099
config *.terminal[28].mob.centerLongitude -17.113
config *.terminal[29].mob.radius 0.0
config *.terminal[29].mob.centerLatitude 34.921
config *.terminal[29].mob.centerLongitude 33.623
config **.numStations 3
config **.numStations 3
config *.station[0].mobility.latitude 55.752
config *.station[0].mobility.longitude 37.616
config *.station[0].cityName "\"Moscow\""
config *.station[0].groundStationId 7
config *.station[0].routerAddr "\"10.0.0.29\""
config *.station[0].serving "\"10.0.0.29\""
config *.station[1].mobility.latitude 28.652
config *.station[1].mobility.longitude 77.231
config *.station[1].cityName "\"Delhi\""
config *.station[1].groundStationId 11
config *.station[1].routerAddr "\"10.0.0.45\""
config *.station[1].serving "\"10.0.0.45\""
config *.station[2].mobility.latitude 25.35
config *.station[2].mobility.longitude 51.24
config *.station[2].cityName "\"Katar\""
config *.station[2].groundStationId 19
config *.station[2].routerAddr "\"10.0.0.77\""
config *.station[2].serving "\"10.0.0.77\""
config *.visualizer.canvasVisualizer.mediumVisualizer.typename ""
config *.visualizer.*.radioVisualizer.displayAntennaLobes true
config *.visualizer.*.dataLinkVisualizer.displayLinks true
config *.visualizer.*.mobilityVisualizer.displayMovementTrails true
config *.visualizer.*.mobilityVisualizer.movementTrailLineWidth 1
config *.visualizer.*.mobilityVisualizer.trailLength 3000
config **.ttxStart_max 30s
config **.ttxIdle_min 10s
config **.ttxIdle_max 25s
config **.Ntw 2
config **.Ntx 45
config **.ttwDuration 550s

vector 0 Florasat_Individual_Sats.satellite[0].dlkDSL.mac "Satellite Position when Repetition Received" ETV
vector 1 Florasat_Individual_Sats.satellite[0].dlkDSL.mac "Repetition Position for Node 463 at Satellite" ETV
vector 2 Florasat_Individual_Sats.satellite[0].dlkDSL.mac "All Nodes Repetition Generation Delay at Satellite" ETV
vector 3 Florasat_Individual_Sats.satellite[0].dlkDSL.mac "Repetition Generation Delay for Node 463 at Satellite" ETV
vector 4 Florasat_Individual_Sats.satellite[0].dlkDSL.mac "All Nodes Message Generation Delay at Satellite" ETV
vector 5 Florasat_Individual_Sats.satellite[0].dlkDSL.mac "Message Generation Delay for Node 463 at Satellite" ETV
vector 6 Florasat_Individual_Sats.satellite[0].net.packetHandler "packets received" ETV
vector 7 Florasat_Individual_Sats.satellite[0].net.packetHandler "dropped unroutable" ETV
vector 8 Florasat_Individual_Sats.satellite[0].net.packetHandler "packets dropped" ETV
vector 9 Florasat_Individual_Sats.satellite[0].dlkDSL.mac "Repetition Position for Node 268 at Satellite" ETV
vector 10 Florasat_Individual_Sats.satellite[0].dlkDSL.mac "Repetition Generation Delay for Node 268 at Satellite" ETV
vector 11 Florasat_Individual_Sats.satellite[0].dlkDSL.mac "Message Generation Delay for Node 268 at Satellite" ETV
vector 12 Florasat_Individual_Sats.satellite[0].dlkDSL.mac "Repetition Position for Node 103 at Satellite" ETV
vector 13 Florasat_Individual_Sats.satellite[0].dlkDSL.mac "Repetition Generation Delay for Node 103 at Satellite" ETV
vector 14 Florasat_Individual_Sats.satellite[0].dlkDSL.mac "Message Generation Delay for Node 103 at Satellite" ETV
vector 15 Florasat_Individual_Sats.satellite[0].dlkDSL.mac "Repetition Position for Node 88 at Satellite" ETV
vector 16 Florasat_Individual_Sats.satellite[0].dlkDSL.mac "Repetition Generation Delay for Node 88 at Satellite" ETV
vector 17 Florasat_Individual_Sats.satellite[0].dlkDSL.mac "Message Generation Delay for Node 88 at Satellite" ETV
vector 18 Florasat_Individual_Sats.satellite[0].dlkDSL.mac "Repetition Position for Node 313 at Satellite" ETV
vector 19 Florasat_Individual_Sats.satellite[0].dlkDSL.mac "Repetition Generation Delay for Node 313 at Satellite" ETV
vector 20 Florasat_Individual_Sats.satellite[0].dlkDSL.mac "Message Generation Delay for Node 313 at Satellite" ETV
vector 21 Florasat_Individual_Sats.satellite[0].dlkDSL.mac "Repetition Position for Node 343 at Satellite" ETV
vector 22 Florasat_Individual_Sats.satellite[0].dlkDSL.mac "Repetition Generation Delay for Node 343 at Satellite" ETV
vector 23 Florasat_Individual_Sats.satellite[0].dlkDSL.mac "Message Generation Delay for Node 343 at Satellite" ETV
vector 24 Florasat_Individual_Sats.satellite[0].dlkDSL.mac "Repetition Position for Node 358 at Satellite" ETV
vector 25 Florasat_Individual_Sats.satellite[0].dlkDSL.mac "Repetition Generation Delay for Node 358 at Satellite" ETV
vector 26 Florasat_Individual_Sats.satellite[0].dlkDSL.mac "Message Generation Delay for Node 358 at Satellite" ETV
vector 27 Florasat_Individual_Sats.satellite[0].dlkDSL.mac "Repetition Position for Node 328 at Satellite" ETV
vector 28 Florasat_Individual_Sats.satellite[0].dlkDSL.mac "Repetition Generation Delay for Node 328 at Satellite" ETV
vector 29 Florasat_Individual_Sats.satellite[0].dlkDSL.mac "Message Generation Delay for Node 328 at Satellite" ETV
vector 30 Florasat_Individual_Sats.satellite[0].dlkDSL.mac "Repetition Position for Node 283 at Satellite" ETV
vector 31 Florasat_Individual_Sats.satellite[0].dlkDSL.mac "Repetition Generation Delay for Node 283 at Satellite" ETV
vector 32 Florasat_Individual_Sats.satellite[0].dlkDSL.mac "Message Generation Delay for Node 283 at Satellite" ETV
vector 33 Florasat_Individual_Sats.satellite[0].dlkDSL.mac "Repetition Position for Node 58 at Satellite" ETV
vector 34 Florasat_Individual_Sats.satellite[0].dlkDSL.mac "Repetition Generation Delay for Node 58 at Satellite" ETV
vector 35 Florasat_Individual_Sats.satellite[0].dlkDSL.mac "Message Generation Delay for Node 58 at Satellite" ETV
vector 36 Florasat_Individual_Sats.satellite[0].dlkDSL.mac "Repetition Position for Node 373 at Satellite" ETV
vector 37 Florasat_Individual_Sats.satellite[0].dlkDSL.mac "Repetition Generation Delay for Node 373 at Satellite" ETV
vector 38 Florasat_Individual_Sats.satellite[0].dlkDSL.mac "Message Generation Delay for Node 373 at Satellite" ETV
vector 39 Florasat_Individual_Sats.satellite[0].dlkDSL.mac "Repetition Position for Node 223 at Satellite" ETV
vector 40 Florasat_Individual_Sats.satellite[0].dlkDSL.mac "Repetition Generation Delay for Node 223 at Satellite" ETV
vector 41 Florasat_Individual_Sats.satellite[0].dlkDSL.mac "Message Generation Delay for Node 223 at Satellite" ETV
vector 42 Florasat_Individual_Sats.satellite[0].dlkDSL.mac "Repetition Position for Node 73 at Satellite" ETV
vector 43 Florasat_Individual_Sats.satellite[0].dlkDSL.mac "Repetition Generation Delay for Node 73 at Satellite" ETV
vector 44 Florasat_Individual_Sats.satellite[0].dlkDSL.mac "Message Generation Delay for Node 73 at Satellite" ETV
vector 45 Florasat_Individual_Sats.satellite[0].dlkDSL.mac "Repetition Position for Node 388 at Satellite" ETV
vector 46 Florasat_Individual_Sats.satellite[0].dlkDSL.mac "Repetition Generation Delay for Node 388 at Satellite" ETV
vector 47 Florasat_Individual_Sats.satellite[0].dlkDSL.mac "Message Generation Delay for Node 388 at Satellite" ETV
vector 48 Florasat_Individual_Sats.satellite[0].dlkDSL.mac "Repetition Position for Node 208 at Satellite" ETV
vector 49 Florasat_Individual_Sats.satellite[0].dlkDSL.mac "Repetition Generation Delay for Node 208 at Satellite" ETV
vector 50 Florasat_Individual_Sats.satellite[0].dlkDSL.mac "Message Generation Delay for Node 208 at Satellite" ETV
vector 51 Florasat_Individual_Sats.satellite[0].dlkDSL.mac "Repetition Position for Node 238 at Satellite" ETV
vector 52 Florasat_Individual_Sats.satellite[0].dlkDSL.mac "Repetition Generation Delay for Node 238 at Satellite" ETV
vector 53 Florasat_Individual_Sats.satellite[0].dlkDSL.mac "Message Generation Delay for Node 238 at Satellite" ETV
vector 54 Florasat_Individual_Sats.satellite[0].dlkDSL.mac "Repetition Position for Node 403 at Satellite" ETV
vector 55 Florasat_Individual_Sats.satellite[0].dlkDSL.mac "Repetition Generation Delay for Node 403 at Satellite" ETV
vector 56 Florasat_Individual_Sats.satellite[0].dlkDSL.mac "Message Generation Delay for Node 403 at Satellite" ETV
vector 57 Florasat_Individual_Sats.satellite[0].dlkDSL.mac "Repetition Position for Node 163 at Satellite" ETV
vector 58 Florasat_Individual_Sats.satellite[0].dlkDSL.mac "Repetition Generation Delay for Node 163 at Satellite" ETV
vector 59 Florasat_Individual_Sats.satellite[0].dlkDSL.mac "Message Generation Delay for Node 163 at Satellite" ETV
vector 60 Florasat_Individual_Sats.satellite[0].dlkDSL.mac "Repetition Position for Node 118 at Satellite" ETV
vector 61 Florasat_Individual_Sats.satellite[0].dlkDSL.mac "Repetition Generation Delay for Node 118 at Satellite" ETV
vector 62 Florasat_Individual_Sats.satellite[0].dlkDSL.mac "Message Generation Delay for Node 118 at Satellite" ETV
vector 63 Florasat_Individual_Sats.satellite[0].dlkDSL.mac "Repetition Position for Node 418 at Satellite" ETV
vector 64 Florasat_Individual_Sats.satellite[0].dlkDSL.mac "Repetition Generation Delay for Node 418 at Satellite" ETV
vector 65 Florasat_Individual_Sats.satellite[0].dlkDSL.mac "Message Generation Delay for Node 418 at Satellite" ETV
vector 66 Florasat_Individual_Sats.satellite[0].dlkDSL.mac "Repetition Position for Node 433 at Satellite" ETV
vector 67 Florasat_Individual_Sats.satellite[0].dlkDSL.mac "Repetition Generation Delay for Node 433 at Satellite" ETV
vector 68 Florasat_Individual_Sats.satellite[0].dlkDSL.mac "Message Generation Delay for Node 433 at Satellite" ETV
vector 69 Florasat_Individual_Sats.satellite[0].dlkDSL.mac "Repetition Position for Node 193 at Satellite" ETV
vector 70 Florasat_Individual_Sats.satellite[0].dlkDSL.mac "Repetition Generation Delay for Node 193 at Satellite" ETV
vector 71 Florasat_Individual_Sats.satellite[0].dlkDSL.mac "Message Generation Delay for Node 193 at Satellite" ETV
vector 72 Florasat_Individual_Sats.satellite[0].dlkDSL.mac "Repetition Position for Node 448 at Satellite" ETV
vector 73 Florasat_Individual_Sats.satellite[0].dlkDSL.mac "Repetition Generation Delay for Node 448 at Satellite" ETV
vector 74 Florasat_Individual_Sats.satellite[0].dlkDSL.mac "Message Generation Delay for Node 448 at Satellite" ETV
vector 75 Florasat_Individual_Sats.satellite[0].dlkDSL.mac "Repetition Position for Node 148 at Satellite" ETV
vector 76 Florasat_Individual_Sats.satellite[0].dlkDSL.mac "Repetition Generation Delay for Node 148 at Satellite" ETV
vector 77 Florasat_Individual_Sats.satellite[0].dlkDSL.mac "Message Generation Delay for Node 148 at Satellite" ETV
vector 78 Florasat_Individual_Sats.satellite[0].dlkDSL.mac "Repetition Position for Node 298 at Satellite" ETV
vector 79 Florasat_Individual_Sats.satellite[0].dlkDSL.mac "Repetition Generation Delay for Node 298 at Satellite" ETV
vector 80 Florasat_Individual_Sats.satellite[0].dlkDSL.mac "Message Generation Delay for Node 298 at Satellite" ETV
vector 81 Florasat_Individual_Sats.satellite[0].dlkDSL.mac "Repetition Position for Node 133 at Satellite" ETV
vector 82 Florasat_Individual_Sats.satellite[0].dlkDSL.mac "Repetition Generation Delay for Node 133 at Satellite" ETV
vector 83 Florasat_Individual_Sats.satellite[0].dlkDSL.mac "Message Generation Delay for Node 133 at Satellite" ETV
vector 84 Florasat_Individual_Sats.satellite[0].dlkDSL.mac "Repetition Position for Node 253 at Satellite" ETV
vector 85 Florasat_Individual_Sats.satellite[0].dlkDSL.mac "Repetition Generation Delay for Node 253 at Satellite" ETV
vector 86 Florasat_Individual_Sats.satellite[0].dlkDSL.mac "Message Generation Delay for Node 253 at Satellite" ETV
vector 87 Florasat_Individual_Sats.satellite[0].dlkDSL.mac "Repetition Position for Node 493 at Satellite" ETV
vector 88 Florasat_Individual_Sats.satellite[0].dlkDSL.mac "Repetition Generation Delay for Node 493 at Satellite" ETV
vector 89 Florasat_Individual_Sats.satellite[0].dlkDSL.mac "Message Generation Delay for Node 493 at Satellite" ETV
vector 90 Florasat_Individual_Sats.satellite[0].dlkDSL.mac "Repetition Position for Node 178 at Satellite" ETV
vector 91 Florasat_Individual_Sats.satellite[0].dlkDSL.mac "Repetition Generation Delay for Node 178 at Satellite" ETV
vector 92 Florasat_Individual_Sats.satellite[0].dlkDSL.mac "Message Generation Delay for Node 178 at Satellite" ETV
0	19667 6461 164 6299 9.51575733781 740.56144088836 242 180 180 43560 7840800
1	26128 127 164 1634 9.51575733781 134.89490270557 5 180 180 900 162000
2	26255 9309 164 6299 9.51575733781 740.56144088836 242 8.51575733781 739.56144088836 80306.845160202 36259126.209758
3	35564 182 164 1634 9.51575733781 134.89490270557 5 8.51575733781 133.89490270557 330.89842696389 33727.196950226
4	35746 1095 164 4623 9.51575733781 488.40683664305 29 8.51575733781 487.40683664305 4387.8933502944 1080672.4770564
5	36841 34 164 164 9.51575733781 9.51575733781 1 8.51575733781 8.51575733781 8.51575733781 72.518123036465
6	36875 6353 165 6300 9.51575733781 740.56144088836 242 1 242 29403 4753485
7	43228 6353 165 6300 9.51575733781 740.56144088836 242 1 242 29403 4753485
8	49581 6353 165 6300 9.51575733781 740.56144088836 242 1 242 29403 4753485
9	55934 214 368 6081 32.51435665241 703.68038729591 8 180 180 1440 259200
10	56148 317 368 6081 32.51435665241 703.68038729591 8 31.51435665241 702.68038729591 2524.9799617409 1201617.7949614
11	56465 37 368 368 32.51435665241 32.51435665241 1 31.51435665241 31.51435665241 31.51435665241 993.1546752153
12	56502 303 385 6299 34.15426315836 740.56144088836 11 180 180 1980 356400
13	56805 431 385 6299 34.15426315836 740.56144088836 11 33.15426315836 739.56144088836 4190.2059245108 2202400.8125117
14	57236 37 385 385 34.15426315836 34.15426315836 1 33.15426315836 33.15426315836 33.15426315836 1099.2051655738
15	57273 525 444 5145 39.42169859184 565.54369963233 19 180 180 3420 615600
16	57798 749 444 5145 39.42169859184 565.54369963233 19 38.42169859184 564.54369963233 5450.939305504 2109499.8882882
17	58547 37 444 444 39.42169859184 39.42169859184 1 38.42169859184 38.42169859184 38.42169859184 1476.2269226822
18	58584 302 448 4645 39.50387152089 494.83373361 11 180 180 1980 356400
19	58886 429 448 4645 39.50387152089 494.83373361 11 38.50387152089 493.83373361 2508.673945964 729833.8219907
20	59315 37 448 448 39.50387152089 39.50387152089 1 38.50387152089 38.50387152089 38.50387152089 1482.5481220972
21	59352 359 460 3427 41.02840116657 279.85414350464 13 180 180 2340 421200
22	59711 512 460 3427 41.02840116657 279.85414350464 13 40.02840116657 278.85414350464 2179.7451852728 430205.1090197
23	60223 37 460 460 41.02840116657 41.02840116657 1 40.02840116657 40.02840116657 40.02840116657 1602.2728999519
24	60260 359 475 4521 42.09320378666 455.75807334099 13 180 180 2340 421200
25	60619 512 475 4521 42.09320378666 455.75807334099 13 41.09320378666 454.75807334099 2800.9116274096 801368.64424735
26	61131 37 475 475 42.09320378666 42.09320378666 1 41.09320378666 41.09320378666 41.09320378666 1688.651397452
27	61168 330 502 4295 44.47014652535 415.649112584 12 180 180 2160 388800
28	61498 469 502 4295 44.47014652535 415.649112584 12 43.47014652535 414.649112584 2408.3289353805 581992.48677761
29	61967 37 502 502 44.47014652535 44.47014652535 1 43.47014652535 43.47014652535 43.47014652535 1889.6536389354
30	62004 137 671 5925 52.33022180948 692.17482174026 5 180 180 900 162000
31	62141 195 671 5925 52.33022180948 692.17482174026 5 51.33022180948 691.17482174026 1913.3952413268 1033081.1317955
32	62336 37 671 671 52.33022180948 52.33022180948 1 51.33022180948 51.33022180948 51.33022180948 2634.7916710104
33	62373 246 729 2966 58.24038587272 240.07023405626 9 180 180 1620 291600
34	62619 350 729 2966 58.24038587272 240.07023405626 9 57.24038587272 239.07023405626 1201.3774933115 191290.77282747
35	62969 37 729 729 58.24038587272 58.24038587272 1 57.24038587272 57.24038587272 57.24038587272 3276.4617748579
36	63006 139 1067 4787 92.16295622399 503.68848569103 5 180 180 900 162000
37	63145 198 1067 4787 92.16295622399 503.68848569103 5 91.16295622399 502.68848569103 1435.2294549343 502002.56498807
38	63343 38 1067 1067 92.16295622399 92.16295622399 1 91.16295622399 91.16295622399 91.16295622399 8310.6845874971
39	63381 195 1147 6212 98.97944442988 726.65349714169 7 180 180 1260 226800
40	63576 278 1147 6212 98.97944442988 726.65349714169 7 97.97944442988 725.65349714169 2812.214056745 1505740.5082072
41	63854 38 1147 1147 98.97944442988 98.97944442988 1 97.97944442988 97.97944442988 97.97944442988 9599.9715307879
42	63892 196 1326 4498 107.09083003984 452.62144636541 7 180 180 1260 226800
43	64088 280 1326 4498 107.09083003984 452.62144636541 7 106.09083003984 451.62144636541 1707.9663603093 488132.49173964
44	64368 40 1326 1326 107.09083003984 107.09083003984 1 106.09083003984 106.09083003984 106.09083003984 11255.264218542
45	64408 307 1533 4563 127.08326566143 474.76988243749 11 180 180 1980 356400
46	64715 438 1533 4563 127.08326566143 474.76988243749 11 126.08326566143 473.76988243749 2786.417343221 821276.28292735
47	65153 40 1533 1533 127.08326566143 127.08326566143 1 126.08326566143 126.08326566143 126.08326566143 15896.989879851
48	65193 222 1650 6246 136.50564234415 732.60722628621 8 180 180 1440 259200
49	65415 316 1650 6246 136.50564234415 732.60722628621 8 135.50564234415 731.60722628621 3260.9822735557 1743036.7961115
50	65731 40 1650 1650 136.50564234415 136.50564234415 1 135.50564234415 135.50564234415 135.50564234415 18361.779107101
51	65771 250 1773 5277 148.94022862654 592.24739125923 9 180 180 1620 291600
52	66021 356 1773 5277 148.94022862654 592.24739125923 9 147.94022862654 591.24739125923 3027.7453480343 1218950.2317564
53	66377 40 1773 1773 148.94022862654 148.94022862654 1 147.94022862654 147.94022862654 147.94022862654 21886.311246073
54	66417 194 1913 5892 153.64069288228 686.58305708764 7 180 180 1260 226800
55	66611 276 1913 5892 153.64069288228 686.58305708764 7 152.64069288228 685.58305708764 3045.9269072214 1629619.5435807
56	66887 40 1913 1913 153.64069288228 153.64069288228 1 152.64069288228 152.64069288228 152.64069288228 23299.181123583
57	66927 335 2060 6227 164.93257479139 729.36905259363 12 180 180 2160 388800
58	67262 478 2060 6227 164.93257479139 729.36905259363 12 163.93257479139 728.36905259363 5835.2601789619 3258549.6178724
59	67740 40 2060 2060 164.93257479139 164.93257479139 1 163.93257479139 163.93257479139 163.93257479139 26873.889077735
60	67780 387 2140 6153 173.83388606125 713.10676352696 14 180 180 2520 453600
61	68167 550 2140 6153 173.83388606125 713.10676352696 14 172.83388606125 712.10676352696 6373.3449487846 3448598.0155311
62	68717 40 2140 2140 173.83388606125 173.83388606125 1 172.83388606125 172.83388606125 172.83388606125 29871.552171033
63	68757 168 2394 6128 196.15064035395 708.82519242116 6 180 180 1080 194400
64	68925 240 2394 6128 196.15064035395 708.82519242116 6 195.15064035395 707.82519242116 2316.0081072122 1111766.9414073
65	69165 40 2394 2394 196.15064035395 196.15064035395 1 195.15064035395 195.15064035395 195.15064035395 38083.772430557
66	69205 112 2419 5178 198.22004366776 571.96468198666 4 180 180 720 129600
67	69317 160 2419 5178 198.22004366776 571.96468198666 4 197.22004366776 570.96468198666 1208.9926597883 462363.13170386
68	69477 40 2419 2419 198.22004366776 198.22004366776 1 197.22004366776 197.22004366776 197.22004366776 38895.745624313
69	69517 111 2876 6166 233.40222474053 718.30906810567 4 180 180 720 129600
70	69628 158 2876 6166 233.40222474053 718.30906810567 4 232.40222474053 717.30906810567 1791.8208153587 984452.72428023
71	69786 40 2876 2876 233.40222474053 233.40222474053 1 232.40222474053 232.40222474053 232.40222474053 54010.794064348
72	69826 83 2947 3457 239.42998656749 281.6212396112 3 180 180 540 97200
73	69909 118 2947 3457 239.42998656749 281.6212396112 3 238.42998656749 280.6212396112 782.31494467688 204904.92409299
74	70027 40 2947 2947 239.42998656749 239.42998656749 1 238.42998656749 238.42998656749 238.42998656749 56848.858494573
75	70067 278 3000 6290 242.05392206264 739.52540411907 10 180 180 1800 324000
76	70345 396 3000 6290 242.05392206264 739.52540411907 10 241.05392206264 738.52540411907 5108.8490711865 2864349.4458505
77	70741 40 3000 3000 242.05392206264 242.05392206264 1 241.05392206264 241.05392206264 241.05392206264 58106.993341781
78	70781 196 3010 5842 243.23593007344 675.66994646974 7 180 180 1260 226800
79	70977 280 3010 5842 243.23593007344 675.66994646974 7 242.23593007344 674.66994646974 3049.3334143134 1556845.5175563
80	71257 40 3010 3010 243.23593007344 243.23593007344 1 242.23593007344 242.23593007344 242.23593007344 58678.245818545
81	71297 251 3028 5220 244.43654045209 580.50883126309 9 180 180 1620 291600
82	71548 358 3028 5220 244.43654045209 580.50883126309 9 243.43654045209 579.50883126309 3793.3296865406 1703476.037748
83	71906 40 3028 3028 244.43654045209 244.43654045209 1 243.43654045209 243.43654045209 243.43654045209 59261.349227282
84	71946 140 3058 6238 247.30568720951 731.68680886031 5 180 180 900 162000
85	72086 200 3058 6238 247.30568720951 731.68680886031 5 246.30568720951 730.68680886031 2158.4279176996 1111979.5263171
86	72286 40 3058 3058 247.30568720951 247.30568720951 1 246.30568720951 246.30568720951 246.30568720951 60666.491551749
87	72326 112 4614 5138 487.80971104106 564.70412410041 4 180 180 720 129600
88	72438 160 4614 5138 487.80971104106 564.70412410041 4 486.80971104106 563.70412410041 2133.4649936788 1141351.9586837
89	72598 40 4614 4614 487.80971104106 487.80971104106 1 486.80971104106 486.80971104106 486.80971104106 236983.69476388
90	72638 112 4623 5462 488.40683664305 613.94279817929 4 180 180 720 129600
91	72750 160 4623 5462 488.40683664305 613.94279817929 4 487.40683664305 612.94279817929 2169.7606305952 1186712.2900335
92	72910 40 4623 4623 488.40683664305 488.40683664305 1 487.40683664305 487.40683664305 487.40683664305 237565.42440638

