version 3
run General-2-20260605-22:37:59-1048198
attr configname General
attr datetime 20260605-22:37:59
attr datetimef 20260605-223759
attr experiment General
attr inifile Test_MLModel_1.ini
attr iterationvars $0=15937
attr iterationvarsd 15937
attr iterationvarsf 15937-
attr measurement $0=15937
attr network Florasat.Test_Individual.Florasat_Individual_Sats
attr processid 1048198
attr repetition 2
attr replication #2
attr resultdir results
attr runnumber 2
attr seedset 2
config *.satellite[0].NoradModule.raan 185
config *.stats_altitude 670
config *.stats_raan 185
config image-path ../../images:../../../../samples/inet4.5_2/images
config network Florasat.Test_Individual.Florasat_Individual_Sats
config rng-class cMersenneTwister
config *.**.result-recording-modes -
config **.result-recording-modes -
config **.statistic-recording true
config **.scalar-recording true
config **.vector-recording true
config **.vector-record-eventnumbers true
config repeat 10
config seed-0-mt 15937
config sim-time-limit 749s
config simtime-resolution -11
config **.stats_altitude 670
config **.stats_raan 185
config *.radioMedium.backgroundNoise.power -110dBm
config *.radioMedium.mediumLimitCache.centerFrequency 868MHz
config *.radioMedium.mediumLimitCache.maxTransmissionDuration 4s
config *.radioMedium.mediumLimitCache.minInterferenceTime 0s
config **.numSatellites 1
config *.satellite[*].mobilityType "\"Sat_Mob_SatelliteMobility_Standalone\""
config *.satellite[*].noradModuleType "\"Sat_Mob_NoradA\""
config **.satellite[*].**.initFromDisplayString false
config *.satellite[*].mobility.faceForward true
config *.satellite[*].mobility.updateInterval 20s
config *.satellite[*].NoradModule.satName "\"FLoRaSat\""
config *.satellite[*].NoradModule.satIndex -1
config *.satellite[*].NoradModule.baseYear 20
config *.satellite[*].NoradModule.baseDay 1.5
config *.satellite[*].NoradModule.planes 1
config *.satellite[*].NoradModule.satPerPlane 1
config *.satellite[*].NoradModule.eccentricity 0.000001
config *.satellite[*].NoradModule.inclination 98
config *.satellite[*].NoradModule.altitude 670
config *.satellite[0].NoradModule.raan 185
config *.satellite[0].NoradModule.meanAnomaly 195
config *.satellite[*].phyDSL.radio.receiver.enableCollisionOverlap true
config *.satellite[*].phyDSL.radio.receiver.minCollisionOverlap 0s
config *.satellite[*].phyDSL.radio.antenna.typename ConstantGainAntenna
config *.satellite[*].phyDSL.radio.antenna.mobilityModule "\"^.^.^.mobility\""
config *.satellite[*].phyISL.radio.antenna.mobilityModule "\"^.^.^.mobility\""
config *.satellite[*].phyGSL.radio.antenna.mobilityModule "\"^.^.^.mobility\""
config *.satellite[*].phyDSL.radio.antenna.gain 12dB
config *.satellite[*].net.routingType "\"Null_Routing\""
config *.terminal[*].net.routingType "\"Ter_Null_Routing\""
config *.**.numGroundLinks 40
config *.satellite[*].**.interfaceTableModule "\"\""
config **.radioMedium.typename LoRaMedium
config **.radioMedium.analogModel.typename LoRaAnalogModel
config **.intraPlaneIslDisabled false
config **.interPlaneIslDisabled false
config **.numTerminals 30
config *.terminal[*].phy.radio.antenna.mobilityModule "\"^.^.^.mob\""
config *.terminal[*].dlk.mac.interfaceTableModule "\"\""
config *.terminal[*].dlk.energySourceModule "\"\""
config *.terminal[*].dlk.mac.LoRaTP "intuniform(12, 14)"
config *.terminal[*].dlk.mac.LoRaSF "intuniform(10, 12)"
config *.terminal[*].dlk.mac.useMLBox true
config *.terminal[*].dlk.mac.mlBox.modelPath "\"/home/ylnner/Documents/omnet++/omnetpp-6.3.0/projects/florasat_v4_ult_routing/simulations/Test_Individual/mlmodels/bilstm_scripted.pt\""
config **.numberOfPacketsToSend 0
config **.timeToFirstPacket 1s
config **.timeToNextPacket 50s
config *.terminal[0].mob.radius 0.0
config *.terminal[0].mob.centerLatitude 54.978
config *.terminal[0].mob.centerLongitude -1.617
config *.terminal[1].mob.radius 0.0
config *.terminal[1].mob.centerLatitude 52.630
config *.terminal[1].mob.centerLongitude -1.139
config *.terminal[2].mob.radius 0.0
config *.terminal[2].mob.centerLatitude 52.612
config *.terminal[2].mob.centerLongitude -6.295
config *.terminal[3].mob.radius 0.0
config *.terminal[3].mob.centerLatitude 47.243
config *.terminal[3].mob.centerLongitude 6.024
config *.terminal[4].mob.radius 0.0
config *.terminal[4].mob.centerLatitude 43.610
config *.terminal[4].mob.centerLongitude 3.876
config *.terminal[5].mob.radius 0.0
config *.terminal[5].mob.centerLatitude 49.443
config *.terminal[5].mob.centerLongitude 1.099
config *.terminal[6].mob.radius 0.0
config *.terminal[6].mob.centerLatitude 37.992
config *.terminal[6].mob.centerLongitude -1.130
config *.terminal[7].mob.radius 0.0
config *.terminal[7].mob.centerLatitude 40.965
config *.terminal[7].mob.centerLongitude -5.664
config *.terminal[8].mob.radius 0.0
config *.terminal[8].mob.centerLatitude 40.657
config *.terminal[8].mob.centerLongitude -7.914
config *.terminal[9].mob.radius 0.0
config *.terminal[9].mob.centerLatitude 51.340
config *.terminal[9].mob.centerLongitude 12.373
config *.terminal[10].mob.radius 0.0
config *.terminal[10].mob.centerLatitude 51.455
config *.terminal[10].mob.centerLongitude 7.011
config *.terminal[11].mob.radius 0.0
config *.terminal[11].mob.centerLatitude 49.452
config *.terminal[11].mob.centerLongitude 11.076
config *.terminal[12].mob.radius 0.0
config *.terminal[12].mob.centerLatitude 43.769
config *.terminal[12].mob.centerLongitude 11.255
config *.terminal[13].mob.radius 0.0
config *.terminal[13].mob.centerLatitude 41.117
config *.terminal[13].mob.centerLongitude 16.871
config *.terminal[14].mob.radius 0.0
config *.terminal[14].mob.centerLatitude 52.132
config *.terminal[14].mob.centerLongitude 5.291
config *.terminal[15].mob.radius 0.0
config *.terminal[15].mob.centerLatitude 50.411
config *.terminal[15].mob.centerLongitude 4.444
config *.terminal[16].mob.radius 0.0
config *.terminal[16].mob.centerLatitude 47.559
config *.terminal[16].mob.centerLongitude 7.588
config *.terminal[17].mob.radius 0.0
config *.terminal[17].mob.centerLatitude 55.403
config *.terminal[17].mob.centerLongitude 10.402
config *.terminal[18].mob.radius 0.0
config *.terminal[18].mob.centerLatitude 59.858
config *.terminal[18].mob.centerLongitude 17.638
config *.terminal[19].mob.radius 0.0
config *.terminal[19].mob.centerLatitude 60.451
config *.terminal[19].mob.centerLongitude 22.266
config *.terminal[20].mob.radius 0.0
config *.terminal[20].mob.centerLatitude 56.325
config *.terminal[20].mob.centerLongitude 22.349
config *.terminal[21].mob.radius 0.0
config *.terminal[21].mob.centerLatitude 49.883
config *.terminal[21].mob.centerLongitude 18.568
config *.terminal[22].mob.radius 0.0
config *.terminal[22].mob.centerLatitude 47.531
config *.terminal[22].mob.centerLongitude 21.627
config *.terminal[23].mob.radius 0.0
config *.terminal[23].mob.centerLatitude 44.179
config *.terminal[23].mob.centerLongitude 28.649
config *.terminal[24].mob.radius 0.0
config *.terminal[24].mob.centerLatitude 45.327
config *.terminal[24].mob.centerLongitude 14.442
config *.terminal[25].mob.radius 0.0
config *.terminal[25].mob.centerLatitude 40.694
config *.terminal[25].mob.centerLongitude 30.400
config *.terminal[26].mob.radius 0.0
config *.terminal[26].mob.centerLatitude 37.066
config *.terminal[26].mob.centerLongitude 37.383
config *.terminal[27].mob.radius 0.0
config *.terminal[27].mob.centerLatitude 64.836
config *.terminal[27].mob.centerLongitude -23.708
config *.terminal[28].mob.radius 0.0
config *.terminal[28].mob.centerLatitude 28.099
config *.terminal[28].mob.centerLongitude -17.113
config *.terminal[29].mob.radius 0.0
config *.terminal[29].mob.centerLatitude 34.921
config *.terminal[29].mob.centerLongitude 33.623
config **.numStations 3
config **.numStations 3
config *.station[0].mobility.latitude 55.752
config *.station[0].mobility.longitude 37.616
config *.station[0].cityName "\"Moscow\""
config *.station[0].groundStationId 7
config *.station[0].routerAddr "\"10.0.0.29\""
config *.station[0].serving "\"10.0.0.29\""
config *.station[1].mobility.latitude 28.652
config *.station[1].mobility.longitude 77.231
config *.station[1].cityName "\"Delhi\""
config *.station[1].groundStationId 11
config *.station[1].routerAddr "\"10.0.0.45\""
config *.station[1].serving "\"10.0.0.45\""
config *.station[2].mobility.latitude 25.35
config *.station[2].mobility.longitude 51.24
config *.station[2].cityName "\"Katar\""
config *.station[2].groundStationId 19
config *.station[2].routerAddr "\"10.0.0.77\""
config *.station[2].serving "\"10.0.0.77\""
config *.visualizer.canvasVisualizer.mediumVisualizer.typename ""
config *.visualizer.*.radioVisualizer.displayAntennaLobes true
config *.visualizer.*.dataLinkVisualizer.displayLinks true
config *.visualizer.*.mobilityVisualizer.displayMovementTrails true
config *.visualizer.*.mobilityVisualizer.movementTrailLineWidth 1
config *.visualizer.*.mobilityVisualizer.trailLength 3000
config **.ttxStart_max 30s
config **.ttxIdle_min 10s
config **.ttxIdle_max 25s
config **.Ntw 2
config **.Ntx 45
config **.ttwDuration 550s

vector 0 Florasat_Individual_Sats.satellite[0].dlkDSL.mac "Satellite Position when Repetition Received" ETV
vector 1 Florasat_Individual_Sats.satellite[0].dlkDSL.mac "Repetition Position for Node 463 at Satellite" ETV
vector 2 Florasat_Individual_Sats.satellite[0].dlkDSL.mac "All Nodes Repetition Generation Delay at Satellite" ETV
vector 3 Florasat_Individual_Sats.satellite[0].dlkDSL.mac "Repetition Generation Delay for Node 463 at Satellite" ETV
vector 4 Florasat_Individual_Sats.satellite[0].dlkDSL.mac "All Nodes Message Generation Delay at Satellite" ETV
vector 5 Florasat_Individual_Sats.satellite[0].dlkDSL.mac "Message Generation Delay for Node 463 at Satellite" ETV
vector 6 Florasat_Individual_Sats.satellite[0].net.packetHandler "packets received" ETV
vector 7 Florasat_Individual_Sats.satellite[0].net.packetHandler "dropped unroutable" ETV
vector 8 Florasat_Individual_Sats.satellite[0].net.packetHandler "packets dropped" ETV
vector 9 Florasat_Individual_Sats.satellite[0].dlkDSL.mac "Repetition Position for Node 133 at Satellite" ETV
vector 10 Florasat_Individual_Sats.satellite[0].dlkDSL.mac "Repetition Generation Delay for Node 133 at Satellite" ETV
vector 11 Florasat_Individual_Sats.satellite[0].dlkDSL.mac "Message Generation Delay for Node 133 at Satellite" ETV
vector 12 Florasat_Individual_Sats.satellite[0].dlkDSL.mac "Repetition Position for Node 208 at Satellite" ETV
vector 13 Florasat_Individual_Sats.satellite[0].dlkDSL.mac "Repetition Generation Delay for Node 208 at Satellite" ETV
vector 14 Florasat_Individual_Sats.satellite[0].dlkDSL.mac "Message Generation Delay for Node 208 at Satellite" ETV
vector 15 Florasat_Individual_Sats.satellite[0].dlkDSL.mac "Repetition Position for Node 88 at Satellite" ETV
vector 16 Florasat_Individual_Sats.satellite[0].dlkDSL.mac "Repetition Generation Delay for Node 88 at Satellite" ETV
vector 17 Florasat_Individual_Sats.satellite[0].dlkDSL.mac "Message Generation Delay for Node 88 at Satellite" ETV
vector 18 Florasat_Individual_Sats.satellite[0].dlkDSL.mac "Repetition Position for Node 418 at Satellite" ETV
vector 19 Florasat_Individual_Sats.satellite[0].dlkDSL.mac "Repetition Generation Delay for Node 418 at Satellite" ETV
vector 20 Florasat_Individual_Sats.satellite[0].dlkDSL.mac "Message Generation Delay for Node 418 at Satellite" ETV
vector 21 Florasat_Individual_Sats.satellite[0].dlkDSL.mac "Repetition Position for Node 73 at Satellite" ETV
vector 22 Florasat_Individual_Sats.satellite[0].dlkDSL.mac "Repetition Generation Delay for Node 73 at Satellite" ETV
vector 23 Florasat_Individual_Sats.satellite[0].dlkDSL.mac "Message Generation Delay for Node 73 at Satellite" ETV
vector 24 Florasat_Individual_Sats.satellite[0].dlkDSL.mac "Repetition Position for Node 283 at Satellite" ETV
vector 25 Florasat_Individual_Sats.satellite[0].dlkDSL.mac "Repetition Generation Delay for Node 283 at Satellite" ETV
vector 26 Florasat_Individual_Sats.satellite[0].dlkDSL.mac "Message Generation Delay for Node 283 at Satellite" ETV
vector 27 Florasat_Individual_Sats.satellite[0].dlkDSL.mac "Repetition Position for Node 343 at Satellite" ETV
vector 28 Florasat_Individual_Sats.satellite[0].dlkDSL.mac "Repetition Generation Delay for Node 343 at Satellite" ETV
vector 29 Florasat_Individual_Sats.satellite[0].dlkDSL.mac "Message Generation Delay for Node 343 at Satellite" ETV
vector 30 Florasat_Individual_Sats.satellite[0].dlkDSL.mac "Repetition Position for Node 193 at Satellite" ETV
vector 31 Florasat_Individual_Sats.satellite[0].dlkDSL.mac "Repetition Generation Delay for Node 193 at Satellite" ETV
vector 32 Florasat_Individual_Sats.satellite[0].dlkDSL.mac "Message Generation Delay for Node 193 at Satellite" ETV
vector 33 Florasat_Individual_Sats.satellite[0].dlkDSL.mac "Repetition Position for Node 403 at Satellite" ETV
vector 34 Florasat_Individual_Sats.satellite[0].dlkDSL.mac "Repetition Generation Delay for Node 403 at Satellite" ETV
vector 35 Florasat_Individual_Sats.satellite[0].dlkDSL.mac "Message Generation Delay for Node 403 at Satellite" ETV
vector 36 Florasat_Individual_Sats.satellite[0].dlkDSL.mac "Repetition Position for Node 103 at Satellite" ETV
vector 37 Florasat_Individual_Sats.satellite[0].dlkDSL.mac "Repetition Generation Delay for Node 103 at Satellite" ETV
vector 38 Florasat_Individual_Sats.satellite[0].dlkDSL.mac "Message Generation Delay for Node 103 at Satellite" ETV
vector 39 Florasat_Individual_Sats.satellite[0].dlkDSL.mac "Repetition Position for Node 328 at Satellite" ETV
vector 40 Florasat_Individual_Sats.satellite[0].dlkDSL.mac "Repetition Generation Delay for Node 328 at Satellite" ETV
vector 41 Florasat_Individual_Sats.satellite[0].dlkDSL.mac "Message Generation Delay for Node 328 at Satellite" ETV
vector 42 Florasat_Individual_Sats.satellite[0].dlkDSL.mac "Repetition Position for Node 58 at Satellite" ETV
vector 43 Florasat_Individual_Sats.satellite[0].dlkDSL.mac "Repetition Generation Delay for Node 58 at Satellite" ETV
vector 44 Florasat_Individual_Sats.satellite[0].dlkDSL.mac "Message Generation Delay for Node 58 at Satellite" ETV
vector 45 Florasat_Individual_Sats.satellite[0].dlkDSL.mac "Repetition Position for Node 313 at Satellite" ETV
vector 46 Florasat_Individual_Sats.satellite[0].dlkDSL.mac "Repetition Generation Delay for Node 313 at Satellite" ETV
vector 47 Florasat_Individual_Sats.satellite[0].dlkDSL.mac "Message Generation Delay for Node 313 at Satellite" ETV
vector 48 Florasat_Individual_Sats.satellite[0].dlkDSL.mac "Repetition Position for Node 223 at Satellite" ETV
vector 49 Florasat_Individual_Sats.satellite[0].dlkDSL.mac "Repetition Generation Delay for Node 223 at Satellite" ETV
vector 50 Florasat_Individual_Sats.satellite[0].dlkDSL.mac "Message Generation Delay for Node 223 at Satellite" ETV
vector 51 Florasat_Individual_Sats.satellite[0].dlkDSL.mac "Repetition Position for Node 358 at Satellite" ETV
vector 52 Florasat_Individual_Sats.satellite[0].dlkDSL.mac "Repetition Generation Delay for Node 358 at Satellite" ETV
vector 53 Florasat_Individual_Sats.satellite[0].dlkDSL.mac "Message Generation Delay for Node 358 at Satellite" ETV
vector 54 Florasat_Individual_Sats.satellite[0].dlkDSL.mac "Repetition Position for Node 178 at Satellite" ETV
vector 55 Florasat_Individual_Sats.satellite[0].dlkDSL.mac "Repetition Generation Delay for Node 178 at Satellite" ETV
vector 56 Florasat_Individual_Sats.satellite[0].dlkDSL.mac "Message Generation Delay for Node 178 at Satellite" ETV
vector 57 Florasat_Individual_Sats.satellite[0].dlkDSL.mac "Repetition Position for Node 388 at Satellite" ETV
vector 58 Florasat_Individual_Sats.satellite[0].dlkDSL.mac "Repetition Generation Delay for Node 388 at Satellite" ETV
vector 59 Florasat_Individual_Sats.satellite[0].dlkDSL.mac "Message Generation Delay for Node 388 at Satellite" ETV
vector 60 Florasat_Individual_Sats.satellite[0].dlkDSL.mac "Repetition Position for Node 373 at Satellite" ETV
vector 61 Florasat_Individual_Sats.satellite[0].dlkDSL.mac "Repetition Generation Delay for Node 373 at Satellite" ETV
vector 62 Florasat_Individual_Sats.satellite[0].dlkDSL.mac "Message Generation Delay for Node 373 at Satellite" ETV
vector 63 Florasat_Individual_Sats.satellite[0].dlkDSL.mac "Repetition Position for Node 268 at Satellite" ETV
vector 64 Florasat_Individual_Sats.satellite[0].dlkDSL.mac "Repetition Generation Delay for Node 268 at Satellite" ETV
vector 65 Florasat_Individual_Sats.satellite[0].dlkDSL.mac "Message Generation Delay for Node 268 at Satellite" ETV
vector 66 Florasat_Individual_Sats.satellite[0].dlkDSL.mac "Repetition Position for Node 433 at Satellite" ETV
vector 67 Florasat_Individual_Sats.satellite[0].dlkDSL.mac "Repetition Generation Delay for Node 433 at Satellite" ETV
vector 68 Florasat_Individual_Sats.satellite[0].dlkDSL.mac "Message Generation Delay for Node 433 at Satellite" ETV
vector 69 Florasat_Individual_Sats.satellite[0].dlkDSL.mac "Repetition Position for Node 118 at Satellite" ETV
vector 70 Florasat_Individual_Sats.satellite[0].dlkDSL.mac "Repetition Generation Delay for Node 118 at Satellite" ETV
vector 71 Florasat_Individual_Sats.satellite[0].dlkDSL.mac "Message Generation Delay for Node 118 at Satellite" ETV
vector 72 Florasat_Individual_Sats.satellite[0].dlkDSL.mac "Repetition Position for Node 238 at Satellite" ETV
vector 73 Florasat_Individual_Sats.satellite[0].dlkDSL.mac "Repetition Generation Delay for Node 238 at Satellite" ETV
vector 74 Florasat_Individual_Sats.satellite[0].dlkDSL.mac "Message Generation Delay for Node 238 at Satellite" ETV
vector 75 Florasat_Individual_Sats.satellite[0].dlkDSL.mac "Repetition Position for Node 253 at Satellite" ETV
vector 76 Florasat_Individual_Sats.satellite[0].dlkDSL.mac "Repetition Generation Delay for Node 253 at Satellite" ETV
vector 77 Florasat_Individual_Sats.satellite[0].dlkDSL.mac "Message Generation Delay for Node 253 at Satellite" ETV
vector 78 Florasat_Individual_Sats.satellite[0].dlkDSL.mac "Repetition Position for Node 298 at Satellite" ETV
vector 79 Florasat_Individual_Sats.satellite[0].dlkDSL.mac "Repetition Generation Delay for Node 298 at Satellite" ETV
vector 80 Florasat_Individual_Sats.satellite[0].dlkDSL.mac "Message Generation Delay for Node 298 at Satellite" ETV
vector 81 Florasat_Individual_Sats.satellite[0].dlkDSL.mac "Repetition Position for Node 163 at Satellite" ETV
vector 82 Florasat_Individual_Sats.satellite[0].dlkDSL.mac "Repetition Generation Delay for Node 163 at Satellite" ETV
vector 83 Florasat_Individual_Sats.satellite[0].dlkDSL.mac "Message Generation Delay for Node 163 at Satellite" ETV
vector 84 Florasat_Individual_Sats.satellite[0].dlkDSL.mac "Repetition Position for Node 148 at Satellite" ETV
vector 85 Florasat_Individual_Sats.satellite[0].dlkDSL.mac "Repetition Generation Delay for Node 148 at Satellite" ETV
vector 86 Florasat_Individual_Sats.satellite[0].dlkDSL.mac "Message Generation Delay for Node 148 at Satellite" ETV
0	147	5.02853092019	180
0	201	12.7319289843	180
0	218	15.2844038918	180
0	286	23.23130256789	180
0	293	24.00857149836	180
0	358	30.41348028057	180
0	362	30.43620679987	180
0	413	35.46134453676	180
0	421	35.96023122178	180
0	562	50.25218250872	180
0	683	53.83766027111	180
0	691	54.04708047973	180
0	696	54.63108396218	180
0	741	59.32191384587	180
0	779	62.39166733789	180
0	806	65.27559665208	180
0	819	66.52315273163	180
0	834	68.4743038378	180
0	844	68.99857778213	180
0	877	71.65944319897	180
0	910	74.87259423121	180
0	932	76.5111058549	180
0	973	80.25388713091	180
0	988	80.98419198761	180
0	1020	83.87388271493	180
0	1043	87.38914485549	180
0	1059	88.01800593494	180
0	1100	91.10906037831	180
0	1140	95.10061668807	180
0	1153	97.56723862318	180
0	1283	101.39404668933	180
0	1310	104.32554752313	180
0	1339	106.70890464208	180
0	1343	106.76910581746	180
0	1357	109.12922165466	180
0	1362	109.35481377508	180
0	1376	110.47292495789	180
0	1385	111.24414061758	180
0	1401	113.11845018522	180
0	1450	115.86033023656	180
0	1501	122.67773491507	180
0	1515	123.69857215665	180
0	1532	124.70759738463	180
0	1540	125.38153147072	180
0	1556	126.92125830909	180
0	1560	127.07901534569	180
0	1566	127.97125729945	180
0	1584	129.97028000066	180
0	1591	130.75796379651	180
0	1613	132.71823780788	180
0	1635	133.73096857083	180
0	1675	136.55200752074	180
0	1695	138.22985380832	180
0	1735	142.47664630525	180
0	1778	147.0738479541	180
0	1798	148.93892102703	180
0	1804	149.95742696201	180
0	1917	151.09046351623	180
0	1937	153.39137177327	180
0	1957	155.41502187603	180
0	1967	156.38113077491	180
0	2009	160.05105504527	180
0	2022	161.50350462059	180
0	2042	164.4876134452	180
0	2049	164.77329071089	180
0	2063	165.76959518476	180
0	2070	166.42877884387	180
0	2077	166.86394548853	180
0	2127	169.90322917563	180
0	2145	171.80968948736	180
0	2180	174.97863080698	180
0	2223	179.83232549801	180
0	2239	180.49899932573	180
0	2243	181.11869303802	180
0	2250	182.03334803908	180
0	2254	182.44570344215	180
0	2270	184.17061150601	180
0	2289	185.63687755204	180
0	2313	187.55079573948	180
0	2329	188.87260284501	180
0	2336	189.44508586408	180
0	2377	193.67420697694	180
0	2389	195.33466652495	180
0	2426	197.78618660468	180
0	2436	198.72403099263	180
0	2441	199.50962056385	180
0	2543	201.14269067943	180
0	2552	202.3809132723	180
0	2569	203.27859308448	180
0	2580	204.09554770443	180
0	2595	205.56005382907	180
0	2617	207.96931664919	180
0	2639	210.00512849368	180
0	2669	212.87732989869	180
0	2679	213.71591256111	180
0	2686	214.18412025649	180
0	2699	215.87245175492	180
0	2719	218.32650453613	180
0	2731	219.93762385795	180
0	2746	220.966488836	180
0	2763	222.20302979791	180
0	2770	222.57238990621	180
0	2774	222.83601855571	180
0	2800	225.2975262207	180
0	2815	226.03798966965	180
0	2841	227.66227191541	180
0	2851	228.56956447653	180
0	2861	229.57357795659	180
0	2882	231.3762427994	180
0	2896	233.80098827412	180
0	2907	235.45665639315	180
0	2917	237.04962800432	180
0	2927	237.79285187476	180
0	2936	238.54807632956	180
0	2950	239.99771309428	180
0	2962	241.07991715422	180
0	2982	242.09316343296	180
0	3051	248.57890297523	180
0	3055	248.5902052635	180
0	3065	248.97066549856	180
0	3080	250.50881005586	180
0	3184	252.01744919389	180
0	3213	254.46729792859	180
0	3239	255.86939544062	180
0	3258	257.64740228944	180
0	3283	260.95308089738	180
0	3292	261.79726676194	180
0	3303	262.63603156261	180
0	3354	273.23316787131	180
0	3361	273.40064537458	180
0	3382	275.47896707542	180
0	3389	276.06774033158	180
0	3397	277.07515699849	180
0	3406	277.58772748285	180
0	3420	280.34519390546	180
0	3429	282.29740774706	180
0	3447	283.80215934936	180
0	3453	285.19358970435	180
0	3463	286.26925939872	180
0	3468	287.0583150984	180
0	3478	288.39278023684	180
0	3486	289.19197736136	180
0	3508	293.75319336407	180
0	3516	295.1877864147	180
0	3530	297.78569575379	180
0	3640	304.85574898835	180
0	3649	306.71982268282	180
0	3676	318.35993614806	180
0	3701	323.30684336362	180
0	3715	326.13526542434	180
0	3748	337.92324603528	180
0	3872	352.54061341745	180
0	3876	352.89784037953	180
0	3898	358.26492146349	180
0	3903	359.7319635456	180
0	3937	373.70226887398	180
0	3954	377.47177603636	180
0	4092	401.84911388848	180
0	4105	405.71812314674	180
0	4163	427.93470763479	180
0	4180	433.64765962414	180
0	4219	445.1677727396	180
0	4233	449.14701492974	180
0	4356	454.54533490928	180
0	4361	455.55176125817	180
0	4378	459.31337237069	180
0	4386	460.50320530641	180
0	4449	483.39289486467	180
0	4473	489.30164774758	180
0	4497	495.55277485381	180
0	4613	501.91465676741	180
0	4620	502.72211832172	180
0	4647	509.14111611726	180
0	4653	509.57933154866	180
0	4671	516.8355024652	180
0	4681	518.92156139358	180
0	4694	522.9626640699	180
0	4702	524.86459255083	180
0	4726	530.88992683894	180
0	4743	534.99850137491	180
0	4754	536.12955159153	180
0	4761	537.26160524625	180
0	4798	550.15674464267	180
0	4936	557.5366674478	180
0	4952	564.42391144571	180
0	4968	571.11358197619	180
0	5009	578.29463529148	180
0	5028	584.66820074655	180
0	5064	595.02136573059	180
0	5092	599.34513488532	180
0	5192	601.11163322677	180
0	5201	601.54796225711	180
0	5237	614.17106631658	180
0	5245	616.67814516326	180
0	5255	618.41043846975	180
0	5268	621.02171060493	180
0	5309	627.45275761343	180
0	5319	630.11766106685	180
0	5337	636.03453435217	180
0	5361	638.65619649625	180
0	5371	639.66954118449	180
0	5386	641.58293232884	180
0	5390	642.14035741114	180
0	5404	645.47704886975	180
0	5517	652.48250445099	180
0	5532	655.36048285294	180
0	5562	662.41874682594	180
0	5578	666.02273803381	180
0	5587	667.62688826297	180
0	5642	675.11117016063	180
0	5669	678.6970952093	180
0	5680	680.95232255401	180
0	5701	685.98487085759	180
0	5712	687.71186770735	180
0	5721	688.9772705344	180
0	5759	700.13609131546	180
0	5863	702.33086556642	180
0	5892	709.69906321707	180
0	5918	712.8445475302	180
0	5930	714.62229536324	180
0	5946	717.85425334347	180
0	5978	722.71361119792	180
0	5995	725.90358258322	180
0	6034	734.29535223281	180
0	6038	734.46078050863	180
0	6053	737.27405520603	180
0	6101	744.95673479806	180
0	6118	748.98629115991	180
1	147	5.02853092019	180
1	218	15.2844038918	180
1	741	59.32191384587	180
1	877	71.65944319897	180
1	1020	83.87388271493	180
1	1343	106.76910581746	180
1	2861	229.57357795659	180
1	4233	449.14701492974	180
1	4694	522.9626640699	180
1	4743	534.99850137491	180
2	147	5.02853092019	4.02853092019
2	201	12.7319289843	11.7319289843
2	218	15.2844038918	14.2844038918
2	286	23.23130256789	22.23130256789
2	293	24.00857149836	23.00857149836
2	358	30.41348028057	29.41348028057
2	362	30.43620679987	29.43620679987
2	413	35.46134453676	34.46134453676
2	421	35.96023122178	34.96023122178
2	562	50.25218250872	49.25218250872
2	683	53.83766027111	52.83766027111
2	691	54.04708047973	53.04708047973
2	696	54.63108396218	53.63108396218
2	741	59.32191384587	58.32191384587
2	779	62.39166733789	61.39166733789
2	806	65.27559665208	64.27559665208
2	819	66.52315273163	65.52315273163
2	834	68.4743038378	67.4743038378
2	844	68.99857778213	67.99857778213
2	877	71.65944319897	70.65944319897
2	910	74.87259423121	73.87259423121
2	932	76.5111058549	75.5111058549
2	973	80.25388713091	79.25388713091
2	988	80.98419198761	79.98419198761
2	1020	83.87388271493	82.87388271493
2	1043	87.38914485549	86.38914485549
2	1059	88.01800593494	87.01800593494
2	1100	91.10906037831	90.10906037831
2	1140	95.10061668807	94.10061668807
2	1153	97.56723862318	96.56723862318
2	1283	101.39404668933	100.39404668933
2	1310	104.32554752313	103.32554752313
2	1339	106.70890464208	105.70890464208
2	1343	106.76910581746	105.76910581746
2	1357	109.12922165466	108.12922165466
2	1362	109.35481377508	108.35481377508
2	1376	110.47292495789	109.47292495789
2	1385	111.24414061758	110.24414061758
2	1401	113.11845018522	112.11845018522
2	1450	115.86033023656	114.86033023656
2	1501	122.67773491507	121.67773491507
2	1515	123.69857215665	122.69857215665
2	1532	124.70759738463	123.70759738463
2	1540	125.38153147072	124.38153147072
2	1556	126.92125830909	125.92125830909
2	1560	127.07901534569	126.07901534569
2	1566	127.97125729945	126.97125729945
2	1584	129.97028000066	128.97028000066
2	1591	130.75796379651	129.75796379651
2	1613	132.71823780788	131.71823780788
2	1635	133.73096857083	132.73096857083
2	1675	136.55200752074	135.55200752074
2	1695	138.22985380832	137.22985380832
2	1735	142.47664630525	141.47664630525
2	1778	147.0738479541	146.0738479541
2	1798	148.93892102703	147.93892102703
2	1804	149.95742696201	148.95742696201
2	1917	151.09046351623	150.09046351623
2	1937	153.39137177327	152.39137177327
2	1957	155.41502187603	154.41502187603
2	1967	156.38113077491	155.38113077491
2	2009	160.05105504527	159.05105504527
2	2022	161.50350462059	160.50350462059
2	2042	164.4876134452	163.4876134452
2	2049	164.77329071089	163.77329071089
2	2063	165.76959518476	164.76959518476
2	2070	166.42877884387	165.42877884387
2	2077	166.86394548853	165.86394548853
2	2127	169.90322917563	168.90322917563
2	2145	171.80968948736	170.80968948736
2	2180	174.97863080698	173.97863080698
2	2223	179.83232549801	178.83232549801
2	2239	180.49899932573	179.49899932573
2	2243	181.11869303802	180.11869303802
2	2250	182.03334803908	181.03334803908
2	2254	182.44570344215	181.44570344215
2	2270	184.17061150601	183.17061150601
2	2289	185.63687755204	184.63687755204
2	2313	187.55079573948	186.55079573948
2	2329	188.87260284501	187.87260284501
2	2336	189.44508586408	188.44508586408
2	2377	193.67420697694	192.67420697694
2	2389	195.33466652495	194.33466652495
2	2426	197.78618660468	196.78618660468
2	2436	198.72403099263	197.72403099263
2	2441	199.50962056385	198.50962056385
2	2543	201.14269067943	200.14269067943
2	2552	202.3809132723	201.3809132723
2	2569	203.27859308448	202.27859308448
2	2580	204.09554770443	203.09554770443
2	2595	205.56005382907	204.56005382907
2	2617	207.96931664919	206.96931664919
2	2639	210.00512849368	209.00512849368
2	2669	212.87732989869	211.87732989869
2	2679	213.71591256111	212.71591256111
2	2686	214.18412025649	213.18412025649
2	2699	215.87245175492	214.87245175492
2	2719	218.32650453613	217.32650453613
2	2731	219.93762385795	218.93762385795
2	2746	220.966488836	219.966488836
2	2763	222.20302979791	221.20302979791
2	2770	222.57238990621	221.57238990621
2	2774	222.83601855571	221.83601855571
2	2800	225.2975262207	224.2975262207
2	2815	226.03798966965	225.03798966965
2	2841	227.66227191541	226.66227191541
2	2851	228.56956447653	227.56956447653
2	2861	229.57357795659	228.57357795659
2	2882	231.3762427994	230.3762427994
2	2896	233.80098827412	232.80098827412
2	2907	235.45665639315	234.45665639315
2	2917	237.04962800432	236.04962800432
2	2927	237.79285187476	236.79285187476
2	2936	238.54807632956	237.54807632956
2	2950	239.99771309428	238.99771309428
2	2962	241.07991715422	240.07991715422
2	2982	242.09316343296	241.09316343296
2	3051	248.57890297523	247.57890297523
2	3055	248.5902052635	247.5902052635
2	3065	248.97066549856	247.97066549856
2	3080	250.50881005586	249.50881005586
2	3184	252.01744919389	251.01744919389
2	3213	254.46729792859	253.46729792859
2	3239	255.86939544062	254.86939544062
2	3258	257.64740228944	256.64740228944
2	3283	260.95308089738	259.95308089738
2	3292	261.79726676194	260.79726676194
2	3303	262.63603156261	261.63603156261
2	3354	273.23316787131	272.23316787131
2	3361	273.40064537458	272.40064537458
2	3382	275.47896707542	274.47896707542
2	3389	276.06774033158	275.06774033158
2	3397	277.07515699849	276.07515699849
2	3406	277.58772748285	276.58772748285
2	3420	280.34519390546	279.34519390546
2	3429	282.29740774706	281.29740774706
2	3447	283.80215934936	282.80215934936
2	3453	285.19358970435	284.19358970435
2	3463	286.26925939872	285.26925939872
2	3468	287.0583150984	286.0583150984
2	3478	288.39278023684	287.39278023684
2	3486	289.19197736136	288.19197736136
2	3508	293.75319336407	292.75319336407
2	3516	295.1877864147	294.1877864147
2	3530	297.78569575379	296.78569575379
2	3640	304.85574898835	303.85574898835
2	3649	306.71982268282	305.71982268282
2	3676	318.35993614806	317.35993614806
2	3701	323.30684336362	322.30684336362
2	3715	326.13526542434	325.13526542434
2	3748	337.92324603528	336.92324603528
2	3872	352.54061341745	351.54061341745
2	3876	352.89784037953	351.89784037953
2	3898	358.26492146349	357.26492146349
2	3903	359.7319635456	358.7319635456
2	3937	373.70226887398	372.70226887398
2	3954	377.47177603636	376.47177603636
2	4092	401.84911388848	400.84911388848
2	4105	405.71812314674	404.71812314674
2	4163	427.93470763479	426.93470763479
2	4180	433.64765962414	432.64765962414
2	4219	445.1677727396	444.1677727396
2	4233	449.14701492974	448.14701492974
2	4356	454.54533490928	453.54533490928
2	4361	455.55176125817	454.55176125817
2	4378	459.31337237069	458.31337237069
2	4386	460.50320530641	459.50320530641
2	4449	483.39289486467	482.39289486467
2	4473	489.30164774758	488.30164774758
2	4497	495.55277485381	494.55277485381
2	4613	501.91465676741	500.91465676741
2	4620	502.72211832172	501.72211832172
2	4647	509.14111611726	508.14111611726
2	4653	509.57933154866	508.57933154866
2	4671	516.8355024652	515.8355024652
2	4681	518.92156139358	517.92156139358
2	4694	522.9626640699	521.9626640699
2	4702	524.86459255083	523.86459255083
2	4726	530.88992683894	529.88992683894
2	4743	534.99850137491	533.99850137491
2	4754	536.12955159153	535.12955159153
2	4761	537.26160524625	536.26160524625
2	4798	550.15674464267	549.15674464267
2	4936	557.5366674478	556.5366674478
2	4952	564.42391144571	563.42391144571
2	4968	571.11358197619	570.11358197619
2	5009	578.29463529148	577.29463529148
2	5028	584.66820074655	583.66820074655
2	5064	595.02136573059	594.02136573059
2	5092	599.34513488532	598.34513488532
2	5192	601.11163322677	600.11163322677
2	5201	601.54796225711	600.54796225711
2	5237	614.17106631658	613.17106631658
2	5245	616.67814516326	615.67814516326
2	5255	618.41043846975	617.41043846975
2	5268	621.02171060493	620.02171060493
2	5309	627.45275761343	626.45275761343
2	5319	630.11766106685	629.11766106685
2	5337	636.03453435217	635.03453435217
2	5361	638.65619649625	637.65619649625
2	5371	639.66954118449	638.66954118449
2	5386	641.58293232884	640.58293232884
2	5390	642.14035741114	641.14035741114
2	5404	645.47704886975	644.47704886975
2	5517	652.48250445099	651.48250445099
2	5532	655.36048285294	654.36048285294
2	5562	662.41874682594	661.41874682594
2	5578	666.02273803381	665.02273803381
2	5587	667.62688826297	666.62688826297
2	5642	675.11117016063	674.11117016063
2	5669	678.6970952093	677.6970952093
2	5680	680.95232255401	679.95232255401
2	5701	685.98487085759	684.98487085759
2	5712	687.71186770735	686.71186770735
2	5721	688.9772705344	687.9772705344
2	5759	700.13609131546	699.13609131546
2	5863	702.33086556642	701.33086556642
2	5892	709.69906321707	708.69906321707
2	5918	712.8445475302	711.8445475302
2	5930	714.62229536324	713.62229536324
2	5946	717.85425334347	716.85425334347
2	5978	722.71361119792	721.71361119792
2	5995	725.90358258322	724.90358258322
2	6034	734.29535223281	733.29535223281
2	6038	734.46078050863	733.46078050863
2	6053	737.27405520603	736.27405520603
2	6101	744.95673479806	743.95673479806
2	6118	748.98629115991	747.98629115991
3	147	5.02853092019	4.02853092019
3	218	15.2844038918	14.2844038918
3	741	59.32191384587	58.32191384587
3	877	71.65944319897	70.65944319897
3	1020	83.87388271493	82.87388271493
3	1343	106.76910581746	105.76910581746
3	2861	229.57357795659	228.57357795659
3	4233	449.14701492974	448.14701492974
3	4694	522.9626640699	521.9626640699
3	4743	534.99850137491	533.99850137491
4	147	5.02853092019	4.02853092019
4	201	12.7319289843	11.7319289843
4	286	23.23130256789	22.23130256789
4	293	24.00857149836	23.00857149836
4	358	30.41348028057	29.41348028057
4	362	30.43620679987	29.43620679987
4	413	35.46134453676	34.46134453676
4	421	35.96023122178	34.96023122178
4	683	53.83766027111	52.83766027111
4	819	66.52315273163	65.52315273163
4	834	68.4743038378	67.4743038378
4	844	68.99857778213	67.99857778213
4	910	74.87259423121	73.87259423121
4	1140	95.10061668807	94.10061668807
4	1362	109.35481377508	108.35481377508
4	1560	127.07901534569	126.07901534569
4	1566	127.97125729945	126.97125729945
4	1591	130.75796379651	129.75796379651
4	1937	153.39137177327	152.39137177327
4	1967	156.38113077491	155.38113077491
4	2042	164.4876134452	163.4876134452
4	2077	166.86394548853	165.86394548853
4	2907	235.45665639315	234.45665639315
4	3292	261.79726676194	260.79726676194
4	3453	285.19358970435	284.19358970435
4	3903	359.7319635456	358.7319635456
4	5404	645.47704886975	644.47704886975
5	147	5.02853092019	4.02853092019
6	148	5.02853092019	1
6	202	12.7319289843	2
6	219	15.2844038918	3
6	287	23.23130256789	4
6	294	24.00857149836	5
6	359	30.41348028057	6
6	363	30.43620679987	7
6	414	35.46134453676	8
6	422	35.96023122178	9
6	563	50.25218250872	10
6	684	53.83766027111	11
6	692	54.04708047973	12
6	697	54.63108396218	13
6	742	59.32191384587	14
6	780	62.39166733789	15
6	807	65.27559665208	16
6	820	66.52315273163	17
6	835	68.4743038378	18
6	845	68.99857778213	19
6	878	71.65944319897	20
6	911	74.87259423121	21
6	933	76.5111058549	22
6	974	80.25388713091	23
6	989	80.98419198761	24
6	1021	83.87388271493	25
6	1044	87.38914485549	26
6	1060	88.01800593494	27
6	1101	91.10906037831	28
6	1141	95.10061668807	29
6	1154	97.56723862318	30
6	1284	101.39404668933	31
6	1311	104.32554752313	32
6	1340	106.70890464208	33
6	1344	106.76910581746	34
6	1358	109.12922165466	35
6	1363	109.35481377508	36
6	1377	110.47292495789	37
6	1386	111.24414061758	38
6	1402	113.11845018522	39
6	1451	115.86033023656	40
6	1502	122.67773491507	41
6	1516	123.69857215665	42
6	1533	124.70759738463	43
6	1541	125.38153147072	44
6	1557	126.92125830909	45
6	1561	127.07901534569	46
6	1567	127.97125729945	47
6	1585	129.97028000066	48
6	1592	130.75796379651	49
6	1614	132.71823780788	50
6	1636	133.73096857083	51
6	1676	136.55200752074	52
6	1696	138.22985380832	53
6	1736	142.47664630525	54
6	1779	147.0738479541	55
6	1799	148.93892102703	56
6	1805	149.95742696201	57
6	1918	151.09046351623	58
6	1938	153.39137177327	59
6	1958	155.41502187603	60
6	1968	156.38113077491	61
6	2010	160.05105504527	62
6	2023	161.50350462059	63
6	2043	164.4876134452	64
6	2050	164.77329071089	65
6	2064	165.76959518476	66
6	2071	166.42877884387	67
6	2078	166.86394548853	68
6	2128	169.90322917563	69
6	2146	171.80968948736	70
6	2181	174.97863080698	71
6	2224	179.83232549801	72
6	2240	180.49899932573	73
6	2244	181.11869303802	74
6	2251	182.03334803908	75
6	2255	182.44570344215	76
6	2271	184.17061150601	77
6	2290	185.63687755204	78
6	2314	187.55079573948	79
6	2330	188.87260284501	80
6	2337	189.44508586408	81
6	2378	193.67420697694	82
6	2390	195.33466652495	83
6	2427	197.78618660468	84
6	2437	198.72403099263	85
6	2442	199.50962056385	86
6	2544	201.14269067943	87
6	2553	202.3809132723	88
6	2570	203.27859308448	89
6	2581	204.09554770443	90
6	2596	205.56005382907	91
6	2618	207.96931664919	92
6	2640	210.00512849368	93
6	2670	212.87732989869	94
6	2680	213.71591256111	95
6	2687	214.18412025649	96
6	2700	215.87245175492	97
6	2720	218.32650453613	98
6	2732	219.93762385795	99
6	2747	220.966488836	100
6	2764	222.20302979791	101
6	2771	222.57238990621	102
6	2775	222.83601855571	103
6	2801	225.2975262207	104
6	2816	226.03798966965	105
6	2842	227.66227191541	106
6	2852	228.56956447653	107
6	2862	229.57357795659	108
6	2883	231.3762427994	109
6	2897	233.80098827412	110
6	2908	235.45665639315	111
6	2918	237.04962800432	112
6	2928	237.79285187476	113
6	2937	238.54807632956	114
6	2951	239.99771309428	115
6	2963	241.07991715422	116
6	2983	242.09316343296	117
6	3052	248.57890297523	118
6	3056	248.5902052635	119
6	3066	248.97066549856	120
6	3081	250.50881005586	121
6	3185	252.01744919389	122
6	3214	254.46729792859	123
6	3240	255.86939544062	124
6	3259	257.64740228944	125
6	3284	260.95308089738	126
6	3293	261.79726676194	127
6	3304	262.63603156261	128
6	3355	273.23316787131	129
6	3362	273.40064537458	130
6	3383	275.47896707542	131
6	3390	276.06774033158	132
6	3398	277.07515699849	133
6	3407	277.58772748285	134
6	3421	280.34519390546	135
6	3430	282.29740774706	136
6	3448	283.80215934936	137
6	3454	285.19358970435	138
6	3464	286.26925939872	139
6	3469	287.0583150984	140
6	3479	288.39278023684	141
6	3487	289.19197736136	142
6	3509	293.75319336407	143
6	3517	295.1877864147	144
6	3531	297.78569575379	145
6	3641	304.85574898835	146
6	3650	306.71982268282	147
6	3677	318.35993614806	148
6	3702	323.30684336362	149
6	3716	326.13526542434	150
6	3749	337.92324603528	151
6	3873	352.54061341745	152
6	3877	352.89784037953	153
6	3899	358.26492146349	154
6	3904	359.7319635456	155
6	3938	373.70226887398	156
6	3955	377.47177603636	157
6	4093	401.84911388848	158
6	4106	405.71812314674	159
6	4164	427.93470763479	160
6	4181	433.64765962414	161
6	4220	445.1677727396	162
6	4234	449.14701492974	163
6	4357	454.54533490928	164
6	4362	455.55176125817	165
6	4379	459.31337237069	166
6	4387	460.50320530641	167
6	4450	483.39289486467	168
6	4474	489.30164774758	169
6	4498	495.55277485381	170
6	4614	501.91465676741	171
6	4621	502.72211832172	172
6	4648	509.14111611726	173
6	4654	509.57933154866	174
6	4672	516.8355024652	175
6	4682	518.92156139358	176
6	4695	522.9626640699	177
6	4703	524.86459255083	178
6	4727	530.88992683894	179
6	4744	534.99850137491	180
6	4755	536.12955159153	181
6	4762	537.26160524625	182
6	4799	550.15674464267	183
6	4937	557.5366674478	184
6	4953	564.42391144571	185
6	4969	571.11358197619	186
6	5010	578.29463529148	187
6	5029	584.66820074655	188
6	5065	595.02136573059	189
6	5093	599.34513488532	190
6	5193	601.11163322677	191
6	5202	601.54796225711	192
6	5238	614.17106631658	193
6	5246	616.67814516326	194
6	5256	618.41043846975	195
6	5269	621.02171060493	196
6	5310	627.45275761343	197
6	5320	630.11766106685	198
6	5338	636.03453435217	199
6	5362	638.65619649625	200
6	5372	639.66954118449	201
6	5387	641.58293232884	202
6	5391	642.14035741114	203
6	5405	645.47704886975	204
6	5518	652.48250445099	205
6	5533	655.36048285294	206
6	5563	662.41874682594	207
6	5579	666.02273803381	208
6	5588	667.62688826297	209
6	5643	675.11117016063	210
6	5670	678.6970952093	211
6	5681	680.95232255401	212
6	5702	685.98487085759	213
6	5713	687.71186770735	214
6	5722	688.9772705344	215
6	5760	700.13609131546	216
6	5864	702.33086556642	217
6	5893	709.69906321707	218
6	5919	712.8445475302	219
6	5931	714.62229536324	220
6	5947	717.85425334347	221
6	5979	722.71361119792	222
6	5996	725.90358258322	223
6	6035	734.29535223281	224
6	6039	734.46078050863	225
6	6054	737.27405520603	226
6	6102	744.95673479806	227
6	6119	748.98629115991	228
7	148	5.02853092019	1
7	202	12.7319289843	2
7	219	15.2844038918	3
7	287	23.23130256789	4
7	294	24.00857149836	5
7	359	30.41348028057	6
7	363	30.43620679987	7
7	414	35.46134453676	8
7	422	35.96023122178	9
7	563	50.25218250872	10
7	684	53.83766027111	11
7	692	54.04708047973	12
7	697	54.63108396218	13
7	742	59.32191384587	14
7	780	62.39166733789	15
7	807	65.27559665208	16
7	820	66.52315273163	17
7	835	68.4743038378	18
7	845	68.99857778213	19
7	878	71.65944319897	20
7	911	74.87259423121	21
7	933	76.5111058549	22
7	974	80.25388713091	23
7	989	80.98419198761	24
7	1021	83.87388271493	25
7	1044	87.38914485549	26
7	1060	88.01800593494	27
7	1101	91.10906037831	28
7	1141	95.10061668807	29
7	1154	97.56723862318	30
7	1284	101.39404668933	31
7	1311	104.32554752313	32
7	1340	106.70890464208	33
7	1344	106.76910581746	34
7	1358	109.12922165466	35
7	1363	109.35481377508	36
7	1377	110.47292495789	37
7	1386	111.24414061758	38
7	1402	113.11845018522	39
7	1451	115.86033023656	40
7	1502	122.67773491507	41
7	1516	123.69857215665	42
7	1533	124.70759738463	43
7	1541	125.38153147072	44
7	1557	126.92125830909	45
7	1561	127.07901534569	46
7	1567	127.97125729945	47
7	1585	129.97028000066	48
7	1592	130.75796379651	49
7	1614	132.71823780788	50
7	1636	133.73096857083	51
7	1676	136.55200752074	52
7	1696	138.22985380832	53
7	1736	142.47664630525	54
7	1779	147.0738479541	55
7	1799	148.93892102703	56
7	1805	149.95742696201	57
7	1918	151.09046351623	58
7	1938	153.39137177327	59
7	1958	155.41502187603	60
7	1968	156.38113077491	61
7	2010	160.05105504527	62
7	2023	161.50350462059	63
7	2043	164.4876134452	64
7	2050	164.77329071089	65
7	2064	165.76959518476	66
7	2071	166.42877884387	67
7	2078	166.86394548853	68
7	2128	169.90322917563	69
7	2146	171.80968948736	70
7	2181	174.97863080698	71
7	2224	179.83232549801	72
7	2240	180.49899932573	73
7	2244	181.11869303802	74
7	2251	182.03334803908	75
7	2255	182.44570344215	76
7	2271	184.17061150601	77
7	2290	185.63687755204	78
7	2314	187.55079573948	79
7	2330	188.87260284501	80
7	2337	189.44508586408	81
7	2378	193.67420697694	82
7	2390	195.33466652495	83
7	2427	197.78618660468	84
7	2437	198.72403099263	85
7	2442	199.50962056385	86
7	2544	201.14269067943	87
7	2553	202.3809132723	88
7	2570	203.27859308448	89
7	2581	204.09554770443	90
7	2596	205.56005382907	91
7	2618	207.96931664919	92
7	2640	210.00512849368	93
7	2670	212.87732989869	94
7	2680	213.71591256111	95
7	2687	214.18412025649	96
7	2700	215.87245175492	97
7	2720	218.32650453613	98
7	2732	219.93762385795	99
7	2747	220.966488836	100
7	2764	222.20302979791	101
7	2771	222.57238990621	102
7	2775	222.83601855571	103
7	2801	225.2975262207	104
7	2816	226.03798966965	105
7	2842	227.66227191541	106
7	2852	228.56956447653	107
7	2862	229.57357795659	108
7	2883	231.3762427994	109
7	2897	233.80098827412	110
7	2908	235.45665639315	111
7	2918	237.04962800432	112
7	2928	237.79285187476	113
7	2937	238.54807632956	114
7	2951	239.99771309428	115
7	2963	241.07991715422	116
7	2983	242.09316343296	117
7	3052	248.57890297523	118
7	3056	248.5902052635	119
7	3066	248.97066549856	120
7	3081	250.50881005586	121
7	3185	252.01744919389	122
7	3214	254.46729792859	123
7	3240	255.86939544062	124
7	3259	257.64740228944	125
7	3284	260.95308089738	126
7	3293	261.79726676194	127
7	3304	262.63603156261	128
7	3355	273.23316787131	129
7	3362	273.40064537458	130
7	3383	275.47896707542	131
7	3390	276.06774033158	132
7	3398	277.07515699849	133
7	3407	277.58772748285	134
7	3421	280.34519390546	135
7	3430	282.29740774706	136
7	3448	283.80215934936	137
7	3454	285.19358970435	138
7	3464	286.26925939872	139
7	3469	287.0583150984	140
7	3479	288.39278023684	141
7	3487	289.19197736136	142
7	3509	293.75319336407	143
7	3517	295.1877864147	144
7	3531	297.78569575379	145
7	3641	304.85574898835	146
7	3650	306.71982268282	147
7	3677	318.35993614806	148
7	3702	323.30684336362	149
7	3716	326.13526542434	150
7	3749	337.92324603528	151
7	3873	352.54061341745	152
7	3877	352.89784037953	153
7	3899	358.26492146349	154
7	3904	359.7319635456	155
7	3938	373.70226887398	156
7	3955	377.47177603636	157
7	4093	401.84911388848	158
7	4106	405.71812314674	159
7	4164	427.93470763479	160
7	4181	433.64765962414	161
7	4220	445.1677727396	162
7	4234	449.14701492974	163
7	4357	454.54533490928	164
7	4362	455.55176125817	165
7	4379	459.31337237069	166
7	4387	460.50320530641	167
7	4450	483.39289486467	168
7	4474	489.30164774758	169
7	4498	495.55277485381	170
7	4614	501.91465676741	171
7	4621	502.72211832172	172
7	4648	509.14111611726	173
7	4654	509.57933154866	174
7	4672	516.8355024652	175
7	4682	518.92156139358	176
7	4695	522.9626640699	177
7	4703	524.86459255083	178
7	4727	530.88992683894	179
7	4744	534.99850137491	180
7	4755	536.12955159153	181
7	4762	537.26160524625	182
7	4799	550.15674464267	183
7	4937	557.5366674478	184
7	4953	564.42391144571	185
7	4969	571.11358197619	186
7	5010	578.29463529148	187
7	5029	584.66820074655	188
7	5065	595.02136573059	189
7	5093	599.34513488532	190
7	5193	601.11163322677	191
7	5202	601.54796225711	192
7	5238	614.17106631658	193
7	5246	616.67814516326	194
7	5256	618.41043846975	195
7	5269	621.02171060493	196
7	5310	627.45275761343	197
7	5320	630.11766106685	198
7	5338	636.03453435217	199
7	5362	638.65619649625	200
7	5372	639.66954118449	201
7	5387	641.58293232884	202
7	5391	642.14035741114	203
7	5405	645.47704886975	204
7	5518	652.48250445099	205
7	5533	655.36048285294	206
7	5563	662.41874682594	207
7	5579	666.02273803381	208
7	5588	667.62688826297	209
7	5643	675.11117016063	210
7	5670	678.6970952093	211
7	5681	680.95232255401	212
7	5702	685.98487085759	213
7	5713	687.71186770735	214
7	5722	688.9772705344	215
7	5760	700.13609131546	216
7	5864	702.33086556642	217
7	5893	709.69906321707	218
7	5919	712.8445475302	219
7	5931	714.62229536324	220
7	5947	717.85425334347	221
7	5979	722.71361119792	222
7	5996	725.90358258322	223
7	6035	734.29535223281	224
7	6039	734.46078050863	225
7	6054	737.27405520603	226
7	6102	744.95673479806	227
7	6119	748.98629115991	228
8	148	5.02853092019	1
8	202	12.7319289843	2
8	219	15.2844038918	3
8	287	23.23130256789	4
8	294	24.00857149836	5
8	359	30.41348028057	6
8	363	30.43620679987	7
8	414	35.46134453676	8
8	422	35.96023122178	9
8	563	50.25218250872	10
8	684	53.83766027111	11
8	692	54.04708047973	12
8	697	54.63108396218	13
8	742	59.32191384587	14
8	780	62.39166733789	15
8	807	65.27559665208	16
8	820	66.52315273163	17
8	835	68.4743038378	18
8	845	68.99857778213	19
8	878	71.65944319897	20
8	911	74.87259423121	21
8	933	76.5111058549	22
8	974	80.25388713091	23
8	989	80.98419198761	24
8	1021	83.87388271493	25
8	1044	87.38914485549	26
8	1060	88.01800593494	27
8	1101	91.10906037831	28
8	1141	95.10061668807	29
8	1154	97.56723862318	30
8	1284	101.39404668933	31
8	1311	104.32554752313	32
8	1340	106.70890464208	33
8	1344	106.76910581746	34
8	1358	109.12922165466	35
8	1363	109.35481377508	36
8	1377	110.47292495789	37
8	1386	111.24414061758	38
8	1402	113.11845018522	39
8	1451	115.86033023656	40
8	1502	122.67773491507	41
8	1516	123.69857215665	42
8	1533	124.70759738463	43
8	1541	125.38153147072	44
8	1557	126.92125830909	45
8	1561	127.07901534569	46
8	1567	127.97125729945	47
8	1585	129.97028000066	48
8	1592	130.75796379651	49
8	1614	132.71823780788	50
8	1636	133.73096857083	51
8	1676	136.55200752074	52
8	1696	138.22985380832	53
8	1736	142.47664630525	54
8	1779	147.0738479541	55
8	1799	148.93892102703	56
8	1805	149.95742696201	57
8	1918	151.09046351623	58
8	1938	153.39137177327	59
8	1958	155.41502187603	60
8	1968	156.38113077491	61
8	2010	160.05105504527	62
8	2023	161.50350462059	63
8	2043	164.4876134452	64
8	2050	164.77329071089	65
8	2064	165.76959518476	66
8	2071	166.42877884387	67
8	2078	166.86394548853	68
8	2128	169.90322917563	69
8	2146	171.80968948736	70
8	2181	174.97863080698	71
8	2224	179.83232549801	72
8	2240	180.49899932573	73
8	2244	181.11869303802	74
8	2251	182.03334803908	75
8	2255	182.44570344215	76
8	2271	184.17061150601	77
8	2290	185.63687755204	78
8	2314	187.55079573948	79
8	2330	188.87260284501	80
8	2337	189.44508586408	81
8	2378	193.67420697694	82
8	2390	195.33466652495	83
8	2427	197.78618660468	84
8	2437	198.72403099263	85
8	2442	199.50962056385	86
8	2544	201.14269067943	87
8	2553	202.3809132723	88
8	2570	203.27859308448	89
8	2581	204.09554770443	90
8	2596	205.56005382907	91
8	2618	207.96931664919	92
8	2640	210.00512849368	93
8	2670	212.87732989869	94
8	2680	213.71591256111	95
8	2687	214.18412025649	96
8	2700	215.87245175492	97
8	2720	218.32650453613	98
8	2732	219.93762385795	99
8	2747	220.966488836	100
8	2764	222.20302979791	101
8	2771	222.57238990621	102
8	2775	222.83601855571	103
8	2801	225.2975262207	104
8	2816	226.03798966965	105
8	2842	227.66227191541	106
8	2852	228.56956447653	107
8	2862	229.57357795659	108
8	2883	231.3762427994	109
8	2897	233.80098827412	110
8	2908	235.45665639315	111
8	2918	237.04962800432	112
8	2928	237.79285187476	113
8	2937	238.54807632956	114
8	2951	239.99771309428	115
8	2963	241.07991715422	116
8	2983	242.09316343296	117
8	3052	248.57890297523	118
8	3056	248.5902052635	119
8	3066	248.97066549856	120
8	3081	250.50881005586	121
8	3185	252.01744919389	122
8	3214	254.46729792859	123
8	3240	255.86939544062	124
8	3259	257.64740228944	125
8	3284	260.95308089738	126
8	3293	261.79726676194	127
8	3304	262.63603156261	128
8	3355	273.23316787131	129
8	3362	273.40064537458	130
8	3383	275.47896707542	131
8	3390	276.06774033158	132
8	3398	277.07515699849	133
8	3407	277.58772748285	134
8	3421	280.34519390546	135
8	3430	282.29740774706	136
8	3448	283.80215934936	137
8	3454	285.19358970435	138
8	3464	286.26925939872	139
8	3469	287.0583150984	140
8	3479	288.39278023684	141
8	3487	289.19197736136	142
8	3509	293.75319336407	143
8	3517	295.1877864147	144
8	3531	297.78569575379	145
8	3641	304.85574898835	146
8	3650	306.71982268282	147
8	3677	318.35993614806	148
8	3702	323.30684336362	149
8	3716	326.13526542434	150
8	3749	337.92324603528	151
8	3873	352.54061341745	152
8	3877	352.89784037953	153
8	3899	358.26492146349	154
8	3904	359.7319635456	155
8	3938	373.70226887398	156
8	3955	377.47177603636	157
8	4093	401.84911388848	158
8	4106	405.71812314674	159
8	4164	427.93470763479	160
8	4181	433.64765962414	161
8	4220	445.1677727396	162
8	4234	449.14701492974	163
8	4357	454.54533490928	164
8	4362	455.55176125817	165
8	4379	459.31337237069	166
8	4387	460.50320530641	167
8	4450	483.39289486467	168
8	4474	489.30164774758	169
8	4498	495.55277485381	170
8	4614	501.91465676741	171
8	4621	502.72211832172	172
8	4648	509.14111611726	173
8	4654	509.57933154866	174
8	4672	516.8355024652	175
8	4682	518.92156139358	176
8	4695	522.9626640699	177
8	4703	524.86459255083	178
8	4727	530.88992683894	179
8	4744	534.99850137491	180
8	4755	536.12955159153	181
8	4762	537.26160524625	182
8	4799	550.15674464267	183
8	4937	557.5366674478	184
8	4953	564.42391144571	185
8	4969	571.11358197619	186
8	5010	578.29463529148	187
8	5029	584.66820074655	188
8	5065	595.02136573059	189
8	5093	599.34513488532	190
8	5193	601.11163322677	191
8	5202	601.54796225711	192
8	5238	614.17106631658	193
8	5246	616.67814516326	194
8	5256	618.41043846975	195
8	5269	621.02171060493	196
8	5310	627.45275761343	197
8	5320	630.11766106685	198
8	5338	636.03453435217	199
8	5362	638.65619649625	200
8	5372	639.66954118449	201
8	5387	641.58293232884	202
8	5391	642.14035741114	203
8	5405	645.47704886975	204
8	5518	652.48250445099	205
8	5533	655.36048285294	206
8	5563	662.41874682594	207
8	5579	666.02273803381	208
8	5588	667.62688826297	209
8	5643	675.11117016063	210
8	5670	678.6970952093	211
8	5681	680.95232255401	212
8	5702	685.98487085759	213
8	5713	687.71186770735	214
8	5722	688.9772705344	215
8	5760	700.13609131546	216
8	5864	702.33086556642	217
8	5893	709.69906321707	218
8	5919	712.8445475302	219
8	5931	714.62229536324	220
8	5947	717.85425334347	221
8	5979	722.71361119792	222
8	5996	725.90358258322	223
8	6035	734.29535223281	224
8	6039	734.46078050863	225
8	6054	737.27405520603	226
8	6102	744.95673479806	227
8	6119	748.98629115991	228
9	201	12.7319289843	180
9	1376	110.47292495789	180
9	1613	132.71823780788	180
9	2049	164.77329071089	180
9	2223	179.83232549801	180
9	2543	201.14269067943	180
9	2800	225.2975262207	180
9	3649	306.71982268282	180
9	5255	618.41043846975	180
9	5390	642.14035741114	180
9	5578	666.02273803381	180
10	201	12.7319289843	11.7319289843
10	1376	110.47292495789	109.47292495789
10	1613	132.71823780788	131.71823780788
10	2049	164.77329071089	163.77329071089
10	2223	179.83232549801	178.83232549801
10	2543	201.14269067943	200.14269067943
10	2800	225.2975262207	224.2975262207
10	3649	306.71982268282	305.71982268282
10	5255	618.41043846975	617.41043846975
10	5390	642.14035741114	641.14035741114
10	5578	666.02273803381	665.02273803381
11	201	12.7319289843	11.7319289843
12	286	23.23130256789	180
12	562	50.25218250872	180
12	806	65.27559665208	180
12	1695	138.22985380832	180
12	2436	198.72403099263	180
12	2774	222.83601855571	180
12	3303	262.63603156261	180
12	4180	433.64765962414	180
12	5028	584.66820074655	180
13	286	23.23130256789	22.23130256789
13	562	50.25218250872	49.25218250872
13	806	65.27559665208	64.27559665208
13	1695	138.22985380832	137.22985380832
13	2436	198.72403099263	197.72403099263
13	2774	222.83601855571	221.83601855571
13	3303	262.63603156261	261.63603156261
13	4180	433.64765962414	432.64765962414
13	5028	584.66820074655	583.66820074655
14	286	23.23130256789	22.23130256789
15	293	24.00857149836	180
15	1385	111.24414061758	180
15	1635	133.73096857083	180
15	2145	171.80968948736	180
15	3184	252.01744919389	180
15	3361	273.40064537458	180
15	3530	297.78569575379	180
15	4798	550.15674464267	180
15	4936	557.5366674478	180
15	5319	630.11766106685	180
15	5759	700.13609131546	180
15	5995	725.90358258322	180
16	293	24.00857149836	23.00857149836
16	1385	111.24414061758	110.24414061758
16	1635	133.73096857083	132.73096857083
16	2145	171.80968948736	170.80968948736
16	3184	252.01744919389	251.01744919389
16	3361	273.40064537458	272.40064537458
16	3530	297.78569575379	296.78569575379
16	4798	550.15674464267	549.15674464267
16	4936	557.5366674478	556.5366674478
16	5319	630.11766106685	629.11766106685
16	5759	700.13609131546	699.13609131546
16	5995	725.90358258322	724.90358258322
17	293	24.00857149836	23.00857149836
18	358	30.41348028057	180
18	1501	122.67773491507	180
18	3486	289.19197736136	180
18	4092	401.84911388848	180
18	4647	509.14111611726	180
18	5721	688.9772705344	180
18	6101	744.95673479806	180
19	358	30.41348028057	29.41348028057
19	1501	122.67773491507	121.67773491507
19	3486	289.19197736136	288.19197736136
19	4092	401.84911388848	400.84911388848
19	4647	509.14111611726	508.14111611726
19	5721	688.9772705344	687.9772705344
19	6101	744.95673479806	743.95673479806
20	358	30.41348028057	29.41348028057
21	362	30.43620679987	180
21	691	54.04708047973	180
21	1059	88.01800593494	180
21	1357	109.12922165466	180
21	1532	124.70759738463	180
21	1778	147.0738479541	180
21	2569	203.27859308448	180
21	2699	215.87245175492	180
21	2815	226.03798966965	180
21	2950	239.99771309428	180
21	3420	280.34519390546	180
21	3872	352.54061341745	180
22	362	30.43620679987	29.43620679987
22	691	54.04708047973	53.04708047973
22	1059	88.01800593494	87.01800593494
22	1357	109.12922165466	108.12922165466
22	1532	124.70759738463	123.70759738463
22	1778	147.0738479541	146.0738479541
22	2569	203.27859308448	202.27859308448
22	2699	215.87245175492	214.87245175492
22	2815	226.03798966965	225.03798966965
22	2950	239.99771309428	238.99771309428
22	3420	280.34519390546	279.34519390546
22	3872	352.54061341745	351.54061341745
23	362	30.43620679987	29.43620679987
24	413	35.46134453676	180
24	696	54.63108396218	180
24	932	76.5111058549	180
24	1153	97.56723862318	180
24	2639	210.00512849368	180
24	3463	286.26925939872	180
24	4620	502.72211832172	180
24	5930	714.62229536324	180
25	413	35.46134453676	34.46134453676
25	696	54.63108396218	53.63108396218
25	932	76.5111058549	75.5111058549
25	1153	97.56723862318	96.56723862318
25	2639	210.00512849368	209.00512849368
25	3463	286.26925939872	285.26925939872
25	4620	502.72211832172	501.72211832172
25	5930	714.62229536324	713.62229536324
26	413	35.46134453676	34.46134453676
27	421	35.96023122178	180
27	779	62.39166733789	180
27	973	80.25388713091	180
27	1100	91.10906037831	180
27	1310	104.32554752313	180
27	1540	125.38153147072	180
27	1804	149.95742696201	180
27	2127	169.90322917563	180
27	2336	189.44508586408	180
27	2552	202.3809132723	180
27	2686	214.18412025649	180
27	2936	238.54807632956	180
27	3051	248.57890297523	180
27	4386	460.50320530641	180
27	5192	601.11163322677	180
28	421	35.96023122178	34.96023122178
28	779	62.39166733789	61.39166733789
28	973	80.25388713091	79.25388713091
28	1100	91.10906037831	90.10906037831
28	1310	104.32554752313	103.32554752313
28	1540	125.38153147072	124.38153147072
28	1804	149.95742696201	148.95742696201
28	2127	169.90322917563	168.90322917563
28	2336	189.44508586408	188.44508586408
28	2552	202.3809132723	201.3809132723
28	2686	214.18412025649	213.18412025649
28	2936	238.54807632956	237.54807632956
28	3051	248.57890297523	247.57890297523
28	4386	460.50320530641	459.50320530641
28	5192	601.11163322677	600.11163322677
29	421	35.96023122178	34.96023122178
30	683	53.83766027111	180
30	2289	185.63687755204	180
30	2746	220.966488836	180
30	3397	277.07515699849	180
30	3640	304.85574898835	180
30	3676	318.35993614806	180
30	4378	459.31337237069	180
31	683	53.83766027111	52.83766027111
31	2289	185.63687755204	184.63687755204
31	2746	220.966488836	219.966488836
31	3397	277.07515699849	276.07515699849
31	3640	304.85574898835	303.85574898835
31	3676	318.35993614806	317.35993614806
31	4378	459.31337237069	458.31337237069
32	683	53.83766027111	52.83766027111
33	819	66.52315273163	180
33	3508	293.75319336407	180
33	4497	495.55277485381	180
33	5386	641.58293232884	180
34	819	66.52315273163	65.52315273163
34	3508	293.75319336407	292.75319336407
34	4497	495.55277485381	494.55277485381
34	5386	641.58293232884	640.58293232884
35	819	66.52315273163	65.52315273163
36	834	68.4743038378	180
36	1401	113.11845018522	180
36	1556	126.92125830909	180
36	1917	151.09046351623	180
36	2063	165.76959518476	180
36	2329	188.87260284501	180
36	2770	222.57238990621	180
36	3354	273.23316787131	180
36	3516	295.1877864147	180
36	3898	358.26492146349	180
36	4681	518.92156139358	180
36	5201	601.54796225711	180
36	5371	639.66954118449	180
36	5562	662.41874682594	180
37	834	68.4743038378	67.4743038378
37	1401	113.11845018522	112.11845018522
37	1556	126.92125830909	125.92125830909
37	1917	151.09046351623	150.09046351623
37	2063	165.76959518476	164.76959518476
37	2329	188.87260284501	187.87260284501
37	2770	222.57238990621	221.57238990621
37	3354	273.23316787131	272.23316787131
37	3516	295.1877864147	294.1877864147
37	3898	358.26492146349	357.26492146349
37	4681	518.92156139358	517.92156139358
37	5201	601.54796225711	600.54796225711
37	5371	639.66954118449	638.66954118449
37	5562	662.41874682594	661.41874682594
38	834	68.4743038378	67.4743038378
39	844	68.99857778213	180
39	988	80.98419198761	180
39	1283	101.39404668933	180
39	1450	115.86033023656	180
39	1584	129.97028000066	180
39	1735	142.47664630525	180
39	2022	161.50350462059	180
39	2180	174.97863080698	180
39	2313	187.55079573948	180
39	2595	205.56005382907	180
39	2731	219.93762385795	180
39	2896	233.80098827412	180
39	3715	326.13526542434	180
40	844	68.99857778213	67.99857778213
40	988	80.98419198761	79.98419198761
40	1283	101.39404668933	100.39404668933
40	1450	115.86033023656	114.86033023656
40	1584	129.97028000066	128.97028000066
40	1735	142.47664630525	141.47664630525
40	2022	161.50350462059	160.50350462059
40	2180	174.97863080698	173.97863080698
40	2313	187.55079573948	186.55079573948
40	2595	205.56005382907	204.56005382907
40	2731	219.93762385795	218.93762385795
40	2896	233.80098827412	232.80098827412
40	3715	326.13526542434	325.13526542434
41	844	68.99857778213	67.99857778213
42	910	74.87259423121	180
42	1043	87.38914485549	180
42	1339	106.70890464208	180
42	1515	123.69857215665	180
42	1675	136.55200752074	180
42	2009	160.05105504527	180
42	2239	180.49899932573	180
42	2580	204.09554770443	180
42	2982	242.09316343296	180
42	3239	255.86939544062	180
42	3478	288.39278023684	180
42	3937	373.70226887398	180
42	4105	405.71812314674	180
42	4163	427.93470763479	180
42	4356	454.54533490928	180
42	4671	516.8355024652	180
42	4754	536.12955159153	180
43	910	74.87259423121	73.87259423121
43	1043	87.38914485549	86.38914485549
43	1339	106.70890464208	105.70890464208
43	1515	123.69857215665	122.69857215665
43	1675	136.55200752074	135.55200752074
43	2009	160.05105504527	159.05105504527
43	2239	180.49899932573	179.49899932573
43	2580	204.09554770443	203.09554770443
43	2982	242.09316343296	241.09316343296
43	3239	255.86939544062	254.86939544062
43	3478	288.39278023684	287.39278023684
43	3937	373.70226887398	372.70226887398
43	4105	405.71812314674	404.71812314674
43	4163	427.93470763479	426.93470763479
43	4356	454.54533490928	453.54533490928
43	4671	516.8355024652	515.8355024652
43	4754	536.12955159153	535.12955159153
44	910	74.87259423121	73.87259423121
45	1140	95.10061668807	180
45	1957	155.41502187603	180
45	2377	193.67420697694	180
45	2669	212.87732989869	180
45	2927	237.79285187476	180
45	3065	248.97066549856	180
45	3283	260.95308089738	180
45	3447	283.80215934936	180
46	1140	95.10061668807	94.10061668807
46	1957	155.41502187603	154.41502187603
46	2377	193.67420697694	192.67420697694
46	2669	212.87732989869	211.87732989869
46	2927	237.79285187476	236.79285187476
46	3065	248.97066549856	247.97066549856
46	3283	260.95308089738	259.95308089738
46	3447	283.80215934936	282.80215934936
47	1140	95.10061668807	94.10061668807
48	1362	109.35481377508	180
48	2441	199.50962056385	180
48	4653	509.57933154866	180
48	6053	737.27405520603	180
49	1362	109.35481377508	108.35481377508
49	2441	199.50962056385	198.50962056385
49	4653	509.57933154866	508.57933154866
49	6053	737.27405520603	736.27405520603
50	1362	109.35481377508	108.35481377508
51	1560	127.07901534569	180
51	1798	148.93892102703	180
51	2070	166.42877884387	180
51	2270	184.17061150601	180
51	2426	197.78618660468	180
51	2719	218.32650453613	180
51	2851	228.56956447653	180
51	3055	248.5902052635	180
52	1560	127.07901534569	126.07901534569
52	1798	148.93892102703	147.93892102703
52	2070	166.42877884387	165.42877884387
52	2270	184.17061150601	183.17061150601
52	2426	197.78618660468	196.78618660468
52	2719	218.32650453613	217.32650453613
52	2851	228.56956447653	227.56956447653
52	3055	248.5902052635	247.5902052635
53	1560	127.07901534569	126.07901534569
54	1566	127.97125729945	180
54	2763	222.20302979791	180
54	3876	352.89784037953	180
54	4613	501.91465676741	180
54	4761	537.26160524625	180
54	5009	578.29463529148	180
54	5064	595.02136573059	180
54	5237	614.17106631658	180
54	5532	655.36048285294	180
54	5701	685.98487085759	180
54	5978	722.71361119792	180
55	1566	127.97125729945	126.97125729945
55	2763	222.20302979791	221.20302979791
55	3876	352.89784037953	351.89784037953
55	4613	501.91465676741	500.91465676741
55	4761	537.26160524625	536.26160524625
55	5009	578.29463529148	577.29463529148
55	5064	595.02136573059	594.02136573059
55	5237	614.17106631658	613.17106631658
55	5532	655.36048285294	654.36048285294
55	5701	685.98487085759	684.98487085759
55	5978	722.71361119792	721.71361119792
56	1566	127.97125729945	126.97125729945
57	1591	130.75796379651	180
57	2243	181.11869303802	180
57	2917	237.04962800432	180
57	3258	257.64740228944	180
57	3468	287.0583150984	180
57	4449	483.39289486467	180
58	1591	130.75796379651	129.75796379651
58	2243	181.11869303802	180.11869303802
58	2917	237.04962800432	236.04962800432
58	3258	257.64740228944	256.64740228944
58	3468	287.0583150984	286.0583150984
58	4449	483.39289486467	482.39289486467
59	1591	130.75796379651	129.75796379651
60	1937	153.39137177327	180
60	2679	213.71591256111	180
60	2882	231.3762427994	180
60	3080	250.50881005586	180
60	3382	275.47896707542	180
61	1937	153.39137177327	152.39137177327
61	2679	213.71591256111	212.71591256111
61	2882	231.3762427994	230.3762427994
61	3080	250.50881005586	249.50881005586
61	3382	275.47896707542	274.47896707542
62	1937	153.39137177327	152.39137177327
63	1967	156.38113077491	180
63	2389	195.33466652495	180
63	2617	207.96931664919	180
63	2841	227.66227191541	180
63	2962	241.07991715422	180
63	3213	254.46729792859	180
63	3406	277.58772748285	180
64	1967	156.38113077491	155.38113077491
64	2389	195.33466652495	194.33466652495
64	2617	207.96931664919	206.96931664919
64	2841	227.66227191541	226.66227191541
64	2962	241.07991715422	240.07991715422
64	3213	254.46729792859	253.46729792859
64	3406	277.58772748285	276.58772748285
65	1967	156.38113077491	155.38113077491
66	2042	164.4876134452	180
66	2250	182.03334803908	180
66	3429	282.29740774706	180
66	4702	524.86459255083	180
66	5245	616.67814516326	180
66	5337	636.03453435217	180
67	2042	164.4876134452	163.4876134452
67	2250	182.03334803908	181.03334803908
67	3429	282.29740774706	281.29740774706
67	4702	524.86459255083	523.86459255083
67	5245	616.67814516326	615.67814516326
67	5337	636.03453435217	635.03453435217
68	2042	164.4876134452	163.4876134452
69	2077	166.86394548853	180
69	2254	182.44570344215	180
69	3389	276.06774033158	180
69	3701	323.30684336362	180
69	4219	445.1677727396	180
69	4473	489.30164774758	180
69	5309	627.45275761343	180
69	5587	667.62688826297	180
69	5680	680.95232255401	180
69	5946	717.85425334347	180
69	6034	734.29535223281	180
70	2077	166.86394548853	165.86394548853
70	2254	182.44570344215	181.44570344215
70	3389	276.06774033158	275.06774033158
70	3701	323.30684336362	322.30684336362
70	4219	445.1677727396	444.1677727396
70	4473	489.30164774758	488.30164774758
70	5309	627.45275761343	626.45275761343
70	5587	667.62688826297	666.62688826297
70	5680	680.95232255401	679.95232255401
70	5946	717.85425334347	716.85425334347
70	6034	734.29535223281	733.29535223281
71	2077	166.86394548853	165.86394548853
72	2907	235.45665639315	180
72	4361	455.55176125817	180
72	4726	530.88992683894	180
72	5268	621.02171060493	180
72	5517	652.48250445099	180
72	5892	709.69906321707	180
73	2907	235.45665639315	234.45665639315
73	4361	455.55176125817	454.55176125817
73	4726	530.88992683894	529.88992683894
73	5268	621.02171060493	620.02171060493
73	5517	652.48250445099	651.48250445099
73	5892	709.69906321707	708.69906321707
74	2907	235.45665639315	234.45665639315
75	3292	261.79726676194	180
75	3748	337.92324603528	180
75	4952	564.42391144571	180
76	3292	261.79726676194	260.79726676194
76	3748	337.92324603528	336.92324603528
76	4952	564.42391144571	563.42391144571
77	3292	261.79726676194	260.79726676194
78	3453	285.19358970435	180
78	5712	687.71186770735	180
78	5863	702.33086556642	180
78	6118	748.98629115991	180
79	3453	285.19358970435	284.19358970435
79	5712	687.71186770735	686.71186770735
79	5863	702.33086556642	701.33086556642
79	6118	748.98629115991	747.98629115991
80	3453	285.19358970435	284.19358970435
81	3903	359.7319635456	180
81	3954	377.47177603636	180
81	4968	571.11358197619	180
81	5092	599.34513488532	180
81	5361	638.65619649625	180
81	5669	678.6970952093	180
81	5918	712.8445475302	180
82	3903	359.7319635456	358.7319635456
82	3954	377.47177603636	376.47177603636
82	4968	571.11358197619	570.11358197619
82	5092	599.34513488532	598.34513488532
82	5361	638.65619649625	637.65619649625
82	5669	678.6970952093	677.6970952093
82	5918	712.8445475302	711.8445475302
83	3903	359.7319635456	358.7319635456
84	5404	645.47704886975	180
84	5642	675.11117016063	180
84	6038	734.46078050863	180
85	5404	645.47704886975	644.47704886975
85	5642	675.11117016063	674.11117016063
85	6038	734.46078050863	733.46078050863
86	5404	645.47704886975	644.47704886975

