file 69026 1780691882                                           
version 3
run General-2-20260605-22:37:59-1048198
attr configname General
attr datetime 20260605-22:37:59
attr datetimef 20260605-223759
attr experiment General
attr inifile Test_MLModel_1.ini
attr iterationvars $0=15937
attr iterationvarsd 15937
attr iterationvarsf 15937-
attr measurement $0=15937
attr network Florasat.Test_Individual.Florasat_Individual_Sats
attr processid 1048198
attr repetition 2
attr replication #2
attr resultdir results
attr runnumber 2
attr seedset 2
config *.satellite[0].NoradModule.raan 185
config *.stats_altitude 670
config *.stats_raan 185
config image-path ../../images:../../../../samples/inet4.5_2/images
config network Florasat.Test_Individual.Florasat_Individual_Sats
config rng-class cMersenneTwister
config *.**.result-recording-modes -
config **.result-recording-modes -
config **.statistic-recording true
config **.scalar-recording true
config **.vector-recording true
config **.vector-record-eventnumbers true
config repeat 10
config seed-0-mt 15937
config sim-time-limit 749s
config simtime-resolution -11
config **.stats_altitude 670
config **.stats_raan 185
config *.radioMedium.backgroundNoise.power -110dBm
config *.radioMedium.mediumLimitCache.centerFrequency 868MHz
config *.radioMedium.mediumLimitCache.maxTransmissionDuration 4s
config *.radioMedium.mediumLimitCache.minInterferenceTime 0s
config **.numSatellites 1
config *.satellite[*].mobilityType "\"Sat_Mob_SatelliteMobility_Standalone\""
config *.satellite[*].noradModuleType "\"Sat_Mob_NoradA\""
config **.satellite[*].**.initFromDisplayString false
config *.satellite[*].mobility.faceForward true
config *.satellite[*].mobility.updateInterval 20s
config *.satellite[*].NoradModule.satName "\"FLoRaSat\""
config *.satellite[*].NoradModule.satIndex -1
config *.satellite[*].NoradModule.baseYear 20
config *.satellite[*].NoradModule.baseDay 1.5
config *.satellite[*].NoradModule.planes 1
config *.satellite[*].NoradModule.satPerPlane 1
config *.satellite[*].NoradModule.eccentricity 0.000001
config *.satellite[*].NoradModule.inclination 98
config *.satellite[*].NoradModule.altitude 670
config *.satellite[0].NoradModule.raan 185
config *.satellite[0].NoradModule.meanAnomaly 195
config *.satellite[*].phyDSL.radio.receiver.enableCollisionOverlap true
config *.satellite[*].phyDSL.radio.receiver.minCollisionOverlap 0s
config *.satellite[*].phyDSL.radio.antenna.typename ConstantGainAntenna
config *.satellite[*].phyDSL.radio.antenna.mobilityModule "\"^.^.^.mobility\""
config *.satellite[*].phyISL.radio.antenna.mobilityModule "\"^.^.^.mobility\""
config *.satellite[*].phyGSL.radio.antenna.mobilityModule "\"^.^.^.mobility\""
config *.satellite[*].phyDSL.radio.antenna.gain 12dB
config *.satellite[*].net.routingType "\"Null_Routing\""
config *.terminal[*].net.routingType "\"Ter_Null_Routing\""
config *.**.numGroundLinks 40
config *.satellite[*].**.interfaceTableModule "\"\""
config **.radioMedium.typename LoRaMedium
config **.radioMedium.analogModel.typename LoRaAnalogModel
config **.intraPlaneIslDisabled false
config **.interPlaneIslDisabled false
config **.numTerminals 30
config *.terminal[*].phy.radio.antenna.mobilityModule "\"^.^.^.mob\""
config *.terminal[*].dlk.mac.interfaceTableModule "\"\""
config *.terminal[*].dlk.energySourceModule "\"\""
config *.terminal[*].dlk.mac.LoRaTP "intuniform(12, 14)"
config *.terminal[*].dlk.mac.LoRaSF "intuniform(10, 12)"
config *.terminal[*].dlk.mac.useMLBox true
config *.terminal[*].dlk.mac.mlBox.modelPath "\"/home/ylnner/Documents/omnet++/omnetpp-6.3.0/projects/florasat_v4_ult_routing/simulations/Test_Individual/mlmodels/bilstm_scripted.pt\""
config **.numberOfPacketsToSend 0
config **.timeToFirstPacket 1s
config **.timeToNextPacket 50s
config *.terminal[0].mob.radius 0.0
config *.terminal[0].mob.centerLatitude 54.978
config *.terminal[0].mob.centerLongitude -1.617
config *.terminal[1].mob.radius 0.0
config *.terminal[1].mob.centerLatitude 52.630
config *.terminal[1].mob.centerLongitude -1.139
config *.terminal[2].mob.radius 0.0
config *.terminal[2].mob.centerLatitude 52.612
config *.terminal[2].mob.centerLongitude -6.295
config *.terminal[3].mob.radius 0.0
config *.terminal[3].mob.centerLatitude 47.243
config *.terminal[3].mob.centerLongitude 6.024
config *.terminal[4].mob.radius 0.0
config *.terminal[4].mob.centerLatitude 43.610
config *.terminal[4].mob.centerLongitude 3.876
config *.terminal[5].mob.radius 0.0
config *.terminal[5].mob.centerLatitude 49.443
config *.terminal[5].mob.centerLongitude 1.099
config *.terminal[6].mob.radius 0.0
config *.terminal[6].mob.centerLatitude 37.992
config *.terminal[6].mob.centerLongitude -1.130
config *.terminal[7].mob.radius 0.0
config *.terminal[7].mob.centerLatitude 40.965
config *.terminal[7].mob.centerLongitude -5.664
config *.terminal[8].mob.radius 0.0
config *.terminal[8].mob.centerLatitude 40.657
config *.terminal[8].mob.centerLongitude -7.914
config *.terminal[9].mob.radius 0.0
config *.terminal[9].mob.centerLatitude 51.340
config *.terminal[9].mob.centerLongitude 12.373
config *.terminal[10].mob.radius 0.0
config *.terminal[10].mob.centerLatitude 51.455
config *.terminal[10].mob.centerLongitude 7.011
config *.terminal[11].mob.radius 0.0
config *.terminal[11].mob.centerLatitude 49.452
config *.terminal[11].mob.centerLongitude 11.076
config *.terminal[12].mob.radius 0.0
config *.terminal[12].mob.centerLatitude 43.769
config *.terminal[12].mob.centerLongitude 11.255
config *.terminal[13].mob.radius 0.0
config *.terminal[13].mob.centerLatitude 41.117
config *.terminal[13].mob.centerLongitude 16.871
config *.terminal[14].mob.radius 0.0
config *.terminal[14].mob.centerLatitude 52.132
config *.terminal[14].mob.centerLongitude 5.291
config *.terminal[15].mob.radius 0.0
config *.terminal[15].mob.centerLatitude 50.411
config *.terminal[15].mob.centerLongitude 4.444
config *.terminal[16].mob.radius 0.0
config *.terminal[16].mob.centerLatitude 47.559
config *.terminal[16].mob.centerLongitude 7.588
config *.terminal[17].mob.radius 0.0
config *.terminal[17].mob.centerLatitude 55.403
config *.terminal[17].mob.centerLongitude 10.402
config *.terminal[18].mob.radius 0.0
config *.terminal[18].mob.centerLatitude 59.858
config *.terminal[18].mob.centerLongitude 17.638
config *.terminal[19].mob.radius 0.0
config *.terminal[19].mob.centerLatitude 60.451
config *.terminal[19].mob.centerLongitude 22.266
config *.terminal[20].mob.radius 0.0
config *.terminal[20].mob.centerLatitude 56.325
config *.terminal[20].mob.centerLongitude 22.349
config *.terminal[21].mob.radius 0.0
config *.terminal[21].mob.centerLatitude 49.883
config *.terminal[21].mob.centerLongitude 18.568
config *.terminal[22].mob.radius 0.0
config *.terminal[22].mob.centerLatitude 47.531
config *.terminal[22].mob.centerLongitude 21.627
config *.terminal[23].mob.radius 0.0
config *.terminal[23].mob.centerLatitude 44.179
config *.terminal[23].mob.centerLongitude 28.649
config *.terminal[24].mob.radius 0.0
config *.terminal[24].mob.centerLatitude 45.327
config *.terminal[24].mob.centerLongitude 14.442
config *.terminal[25].mob.radius 0.0
config *.terminal[25].mob.centerLatitude 40.694
config *.terminal[25].mob.centerLongitude 30.400
config *.terminal[26].mob.radius 0.0
config *.terminal[26].mob.centerLatitude 37.066
config *.terminal[26].mob.centerLongitude 37.383
config *.terminal[27].mob.radius 0.0
config *.terminal[27].mob.centerLatitude 64.836
config *.terminal[27].mob.centerLongitude -23.708
config *.terminal[28].mob.radius 0.0
config *.terminal[28].mob.centerLatitude 28.099
config *.terminal[28].mob.centerLongitude -17.113
config *.terminal[29].mob.radius 0.0
config *.terminal[29].mob.centerLatitude 34.921
config *.terminal[29].mob.centerLongitude 33.623
config **.numStations 3
config **.numStations 3
config *.station[0].mobility.latitude 55.752
config *.station[0].mobility.longitude 37.616
config *.station[0].cityName "\"Moscow\""
config *.station[0].groundStationId 7
config *.station[0].routerAddr "\"10.0.0.29\""
config *.station[0].serving "\"10.0.0.29\""
config *.station[1].mobility.latitude 28.652
config *.station[1].mobility.longitude 77.231
config *.station[1].cityName "\"Delhi\""
config *.station[1].groundStationId 11
config *.station[1].routerAddr "\"10.0.0.45\""
config *.station[1].serving "\"10.0.0.45\""
config *.station[2].mobility.latitude 25.35
config *.station[2].mobility.longitude 51.24
config *.station[2].cityName "\"Katar\""
config *.station[2].groundStationId 19
config *.station[2].routerAddr "\"10.0.0.77\""
config *.station[2].serving "\"10.0.0.77\""
config *.visualizer.canvasVisualizer.mediumVisualizer.typename ""
config *.visualizer.*.radioVisualizer.displayAntennaLobes true
config *.visualizer.*.dataLinkVisualizer.displayLinks true
config *.visualizer.*.mobilityVisualizer.displayMovementTrails true
config *.visualizer.*.mobilityVisualizer.movementTrailLineWidth 1
config *.visualizer.*.mobilityVisualizer.trailLength 3000
config **.ttxStart_max 30s
config **.ttxIdle_min 10s
config **.ttxIdle_max 25s
config **.Ntw 2
config **.Ntx 45
config **.ttwDuration 550s

vector 0 Florasat_Individual_Sats.satellite[0].dlkDSL.mac "Satellite Position when Repetition Received" ETV
vector 1 Florasat_Individual_Sats.satellite[0].dlkDSL.mac "Repetition Position for Node 463 at Satellite" ETV
vector 2 Florasat_Individual_Sats.satellite[0].dlkDSL.mac "All Nodes Repetition Generation Delay at Satellite" ETV
vector 3 Florasat_Individual_Sats.satellite[0].dlkDSL.mac "Repetition Generation Delay for Node 463 at Satellite" ETV
vector 4 Florasat_Individual_Sats.satellite[0].dlkDSL.mac "All Nodes Message Generation Delay at Satellite" ETV
vector 5 Florasat_Individual_Sats.satellite[0].dlkDSL.mac "Message Generation Delay for Node 463 at Satellite" ETV
vector 6 Florasat_Individual_Sats.satellite[0].net.packetHandler "packets received" ETV
vector 7 Florasat_Individual_Sats.satellite[0].net.packetHandler "dropped unroutable" ETV
vector 8 Florasat_Individual_Sats.satellite[0].net.packetHandler "packets dropped" ETV
vector 9 Florasat_Individual_Sats.satellite[0].dlkDSL.mac "Repetition Position for Node 133 at Satellite" ETV
vector 10 Florasat_Individual_Sats.satellite[0].dlkDSL.mac "Repetition Generation Delay for Node 133 at Satellite" ETV
vector 11 Florasat_Individual_Sats.satellite[0].dlkDSL.mac "Message Generation Delay for Node 133 at Satellite" ETV
vector 12 Florasat_Individual_Sats.satellite[0].dlkDSL.mac "Repetition Position for Node 208 at Satellite" ETV
vector 13 Florasat_Individual_Sats.satellite[0].dlkDSL.mac "Repetition Generation Delay for Node 208 at Satellite" ETV
vector 14 Florasat_Individual_Sats.satellite[0].dlkDSL.mac "Message Generation Delay for Node 208 at Satellite" ETV
vector 15 Florasat_Individual_Sats.satellite[0].dlkDSL.mac "Repetition Position for Node 88 at Satellite" ETV
vector 16 Florasat_Individual_Sats.satellite[0].dlkDSL.mac "Repetition Generation Delay for Node 88 at Satellite" ETV
vector 17 Florasat_Individual_Sats.satellite[0].dlkDSL.mac "Message Generation Delay for Node 88 at Satellite" ETV
vector 18 Florasat_Individual_Sats.satellite[0].dlkDSL.mac "Repetition Position for Node 418 at Satellite" ETV
vector 19 Florasat_Individual_Sats.satellite[0].dlkDSL.mac "Repetition Generation Delay for Node 418 at Satellite" ETV
vector 20 Florasat_Individual_Sats.satellite[0].dlkDSL.mac "Message Generation Delay for Node 418 at Satellite" ETV
vector 21 Florasat_Individual_Sats.satellite[0].dlkDSL.mac "Repetition Position for Node 73 at Satellite" ETV
vector 22 Florasat_Individual_Sats.satellite[0].dlkDSL.mac "Repetition Generation Delay for Node 73 at Satellite" ETV
vector 23 Florasat_Individual_Sats.satellite[0].dlkDSL.mac "Message Generation Delay for Node 73 at Satellite" ETV
vector 24 Florasat_Individual_Sats.satellite[0].dlkDSL.mac "Repetition Position for Node 283 at Satellite" ETV
vector 25 Florasat_Individual_Sats.satellite[0].dlkDSL.mac "Repetition Generation Delay for Node 283 at Satellite" ETV
vector 26 Florasat_Individual_Sats.satellite[0].dlkDSL.mac "Message Generation Delay for Node 283 at Satellite" ETV
vector 27 Florasat_Individual_Sats.satellite[0].dlkDSL.mac "Repetition Position for Node 343 at Satellite" ETV
vector 28 Florasat_Individual_Sats.satellite[0].dlkDSL.mac "Repetition Generation Delay for Node 343 at Satellite" ETV
vector 29 Florasat_Individual_Sats.satellite[0].dlkDSL.mac "Message Generation Delay for Node 343 at Satellite" ETV
vector 30 Florasat_Individual_Sats.satellite[0].dlkDSL.mac "Repetition Position for Node 193 at Satellite" ETV
vector 31 Florasat_Individual_Sats.satellite[0].dlkDSL.mac "Repetition Generation Delay for Node 193 at Satellite" ETV
vector 32 Florasat_Individual_Sats.satellite[0].dlkDSL.mac "Message Generation Delay for Node 193 at Satellite" ETV
vector 33 Florasat_Individual_Sats.satellite[0].dlkDSL.mac "Repetition Position for Node 403 at Satellite" ETV
vector 34 Florasat_Individual_Sats.satellite[0].dlkDSL.mac "Repetition Generation Delay for Node 403 at Satellite" ETV
vector 35 Florasat_Individual_Sats.satellite[0].dlkDSL.mac "Message Generation Delay for Node 403 at Satellite" ETV
vector 36 Florasat_Individual_Sats.satellite[0].dlkDSL.mac "Repetition Position for Node 103 at Satellite" ETV
vector 37 Florasat_Individual_Sats.satellite[0].dlkDSL.mac "Repetition Generation Delay for Node 103 at Satellite" ETV
vector 38 Florasat_Individual_Sats.satellite[0].dlkDSL.mac "Message Generation Delay for Node 103 at Satellite" ETV
vector 39 Florasat_Individual_Sats.satellite[0].dlkDSL.mac "Repetition Position for Node 328 at Satellite" ETV
vector 40 Florasat_Individual_Sats.satellite[0].dlkDSL.mac "Repetition Generation Delay for Node 328 at Satellite" ETV
vector 41 Florasat_Individual_Sats.satellite[0].dlkDSL.mac "Message Generation Delay for Node 328 at Satellite" ETV
vector 42 Florasat_Individual_Sats.satellite[0].dlkDSL.mac "Repetition Position for Node 58 at Satellite" ETV
vector 43 Florasat_Individual_Sats.satellite[0].dlkDSL.mac "Repetition Generation Delay for Node 58 at Satellite" ETV
vector 44 Florasat_Individual_Sats.satellite[0].dlkDSL.mac "Message Generation Delay for Node 58 at Satellite" ETV
vector 45 Florasat_Individual_Sats.satellite[0].dlkDSL.mac "Repetition Position for Node 313 at Satellite" ETV
vector 46 Florasat_Individual_Sats.satellite[0].dlkDSL.mac "Repetition Generation Delay for Node 313 at Satellite" ETV
vector 47 Florasat_Individual_Sats.satellite[0].dlkDSL.mac "Message Generation Delay for Node 313 at Satellite" ETV
vector 48 Florasat_Individual_Sats.satellite[0].dlkDSL.mac "Repetition Position for Node 223 at Satellite" ETV
vector 49 Florasat_Individual_Sats.satellite[0].dlkDSL.mac "Repetition Generation Delay for Node 223 at Satellite" ETV
vector 50 Florasat_Individual_Sats.satellite[0].dlkDSL.mac "Message Generation Delay for Node 223 at Satellite" ETV
vector 51 Florasat_Individual_Sats.satellite[0].dlkDSL.mac "Repetition Position for Node 358 at Satellite" ETV
vector 52 Florasat_Individual_Sats.satellite[0].dlkDSL.mac "Repetition Generation Delay for Node 358 at Satellite" ETV
vector 53 Florasat_Individual_Sats.satellite[0].dlkDSL.mac "Message Generation Delay for Node 358 at Satellite" ETV
vector 54 Florasat_Individual_Sats.satellite[0].dlkDSL.mac "Repetition Position for Node 178 at Satellite" ETV
vector 55 Florasat_Individual_Sats.satellite[0].dlkDSL.mac "Repetition Generation Delay for Node 178 at Satellite" ETV
vector 56 Florasat_Individual_Sats.satellite[0].dlkDSL.mac "Message Generation Delay for Node 178 at Satellite" ETV
vector 57 Florasat_Individual_Sats.satellite[0].dlkDSL.mac "Repetition Position for Node 388 at Satellite" ETV
vector 58 Florasat_Individual_Sats.satellite[0].dlkDSL.mac "Repetition Generation Delay for Node 388 at Satellite" ETV
vector 59 Florasat_Individual_Sats.satellite[0].dlkDSL.mac "Message Generation Delay for Node 388 at Satellite" ETV
vector 60 Florasat_Individual_Sats.satellite[0].dlkDSL.mac "Repetition Position for Node 373 at Satellite" ETV
vector 61 Florasat_Individual_Sats.satellite[0].dlkDSL.mac "Repetition Generation Delay for Node 373 at Satellite" ETV
vector 62 Florasat_Individual_Sats.satellite[0].dlkDSL.mac "Message Generation Delay for Node 373 at Satellite" ETV
vector 63 Florasat_Individual_Sats.satellite[0].dlkDSL.mac "Repetition Position for Node 268 at Satellite" ETV
vector 64 Florasat_Individual_Sats.satellite[0].dlkDSL.mac "Repetition Generation Delay for Node 268 at Satellite" ETV
vector 65 Florasat_Individual_Sats.satellite[0].dlkDSL.mac "Message Generation Delay for Node 268 at Satellite" ETV
vector 66 Florasat_Individual_Sats.satellite[0].dlkDSL.mac "Repetition Position for Node 433 at Satellite" ETV
vector 67 Florasat_Individual_Sats.satellite[0].dlkDSL.mac "Repetition Generation Delay for Node 433 at Satellite" ETV
vector 68 Florasat_Individual_Sats.satellite[0].dlkDSL.mac "Message Generation Delay for Node 433 at Satellite" ETV
vector 69 Florasat_Individual_Sats.satellite[0].dlkDSL.mac "Repetition Position for Node 118 at Satellite" ETV
vector 70 Florasat_Individual_Sats.satellite[0].dlkDSL.mac "Repetition Generation Delay for Node 118 at Satellite" ETV
vector 71 Florasat_Individual_Sats.satellite[0].dlkDSL.mac "Message Generation Delay for Node 118 at Satellite" ETV
vector 72 Florasat_Individual_Sats.satellite[0].dlkDSL.mac "Repetition Position for Node 238 at Satellite" ETV
vector 73 Florasat_Individual_Sats.satellite[0].dlkDSL.mac "Repetition Generation Delay for Node 238 at Satellite" ETV
vector 74 Florasat_Individual_Sats.satellite[0].dlkDSL.mac "Message Generation Delay for Node 238 at Satellite" ETV
vector 75 Florasat_Individual_Sats.satellite[0].dlkDSL.mac "Repetition Position for Node 253 at Satellite" ETV
vector 76 Florasat_Individual_Sats.satellite[0].dlkDSL.mac "Repetition Generation Delay for Node 253 at Satellite" ETV
vector 77 Florasat_Individual_Sats.satellite[0].dlkDSL.mac "Message Generation Delay for Node 253 at Satellite" ETV
vector 78 Florasat_Individual_Sats.satellite[0].dlkDSL.mac "Repetition Position for Node 298 at Satellite" ETV
vector 79 Florasat_Individual_Sats.satellite[0].dlkDSL.mac "Repetition Generation Delay for Node 298 at Satellite" ETV
vector 80 Florasat_Individual_Sats.satellite[0].dlkDSL.mac "Message Generation Delay for Node 298 at Satellite" ETV
vector 81 Florasat_Individual_Sats.satellite[0].dlkDSL.mac "Repetition Position for Node 163 at Satellite" ETV
vector 82 Florasat_Individual_Sats.satellite[0].dlkDSL.mac "Repetition Generation Delay for Node 163 at Satellite" ETV
vector 83 Florasat_Individual_Sats.satellite[0].dlkDSL.mac "Message Generation Delay for Node 163 at Satellite" ETV
vector 84 Florasat_Individual_Sats.satellite[0].dlkDSL.mac "Repetition Position for Node 148 at Satellite" ETV
vector 85 Florasat_Individual_Sats.satellite[0].dlkDSL.mac "Repetition Generation Delay for Node 148 at Satellite" ETV
vector 86 Florasat_Individual_Sats.satellite[0].dlkDSL.mac "Message Generation Delay for Node 148 at Satellite" ETV
0	18975 6079 147 6118 5.02853092019 748.98629115991 228 180 180 41040 7387200
1	25054 258 147 4743 5.02853092019 534.99850137491 10 180 180 1800 324000
2	25312 8762 147 6118 5.02853092019 748.98629115991 228 4.02853092019 747.98629115991 70880.580093229 32176723.791444
3	34074 370 147 4743 5.02853092019 534.99850137491 10 4.02853092019 533.99850137491 2068.6190387204 837350.70966934
4	34444 1002 147 5404 5.02853092019 645.47704886975 27 4.02853092019 644.47704886975 3522.0221393251 945884.12388599
5	35446 34 147 147 5.02853092019 5.02853092019 1 4.02853092019 4.02853092019 4.02853092019 16.229061374927
6	35480 5971 148 6119 5.02853092019 748.98629115991 228 1 228 26106 3976814
7	41451 5971 148 6119 5.02853092019 748.98629115991 228 1 228 26106 3976814
8	47422 5971 148 6119 5.02853092019 748.98629115991 228 1 228 26106 3976814
9	53393 293 201 5578 12.7319289843 666.02273803381 11 180 180 1980 356400
10	53686 433 201 5578 12.7319289843 666.02273803381 11 11.7319289843 665.02273803381 3249.2622814566 1506617.2814381
11	54119 35 201 201 12.7319289843 12.7319289843 1 11.7319289843 11.7319289843 11.7319289843 137.63815769266
12	54154 246 286 5028 23.23130256789 584.66820074655 9 180 180 1620 291600
13	54400 351 286 5028 23.23130256789 584.66820074655 9 22.23130256789 583.66820074655 1970.5008770186 710495.38391039
14	54751 37 286 286 23.23130256789 23.23130256789 1 22.23130256789 22.23130256789 22.23130256789 494.23081386507
15	54788 333 293 5995 24.00857149836 725.90358258322 12 180 180 2160 388800
16	55121 475 293 5995 24.00857149836 725.90358258322 12 23.00857149836 724.90358258322 4415.8479075524 2306141.9476363
17	55596 37 293 293 24.00857149836 24.00857149836 1 23.00857149836 23.00857149836 23.00857149836 529.39436239514
18	55633 193 358 6101 30.41348028057 744.95673479806 7 180 180 1260 226800
19	55826 275 358 6101 30.41348028057 744.95673479806 7 29.41348028057 743.95673479806 2780.2074278952 1544396.9938292
20	56101 37 358 358 30.41348028057 30.41348028057 1 29.41348028057 29.41348028057 29.41348028057 865.15282221548
21	56138 330 362 3872 30.43620679987 352.54061341745 12 180 180 2160 388800
22	56468 470 362 3872 30.43620679987 352.54061341745 12 29.43620679987 351.54061341745 2059.4845151342 456049.02729978
23	56938 37 362 362 30.43620679987 30.43620679987 1 29.43620679987 29.43620679987 29.43620679987 866.49027076471
24	56975 216 413 5930 35.46134453676 714.62229536324 8 180 180 1440 259200
25	57191 307 413 5930 35.46134453676 714.62229536324 8 34.46134453676 713.62229536324 1969.7895745544 905134.59466426
26	57498 37 413 413 35.46134453676 35.46134453676 1 34.46134453676 34.46134453676 34.46134453676 1187.5842672813
27	57535 412 421 5192 35.96023122178 601.11163322677 15 180 180 2700 486000
28	57947 587 421 5192 35.96023122178 601.11163322677 15 34.96023122178 600.11163322677 2959.0345184312 906770.38752178
29	58534 37 421 421 35.96023122178 35.96023122178 1 34.96023122178 34.96023122178 34.96023122178 1222.2177670803
30	58571 192 683 4378 53.83766027111 459.31337237069 7 180 180 1260 226800
31	58763 273 683 4378 53.83766027111 459.31337237069 7 52.83766027111 458.31337237069 1813.0452411647 564582.13597664
32	59036 37 683 683 53.83766027111 53.83766027111 1 52.83766027111 52.83766027111 52.83766027111 2791.8183429252
33	59073 110 819 5386 66.52315273163 641.58293232884 4 180 180 720 129600
34	59183 157 819 5386 66.52315273163 641.58293232884 4 65.52315273163 640.58293232884 1493.4120532783 744926.65607537
35	59340 37 819 819 66.52315273163 66.52315273163 1 65.52315273163 65.52315273163 65.52315273163 4293.2835438925
36	59377 388 834 5562 68.4743038378 662.41874682594 14 180 180 2520 453600
37	59765 553 834 5562 68.4743038378 662.41874682594 14 67.4743038378 661.41874682594 4372.0627511949 1929615.8131391
38	60318 35 834 834 68.4743038378 68.4743038378 1 67.4743038378 67.4743038378 67.4743038378 4552.7816783958
39	60353 360 844 3715 68.99857778213 326.13526542434 13 180 180 2340 421200
40	60713 514 844 3715 68.99857778213 326.13526542434 13 67.99857778213 325.13526542434 2136.1509355541 411460.99028532
41	61227 37 844 844 68.99857778213 68.99857778213 1 67.99857778213 67.99857778213 67.99857778213 4623.8065803924
42	61264 472 910 4754 74.87259423121 536.12955159153 17 180 180 3060 550800
43	61736 673 910 4754 74.87259423121 536.12955159153 17 73.87259423121 535.12955159153 4558.0876532135 1605098.0245046
44	62409 37 910 910 74.87259423121 74.87259423121 1 73.87259423121 73.87259423121 73.87259423121 5457.160178449
45	62446 223 1140 3447 95.10061668807 283.80215934936 8 180 180 1440 259200
46	62669 318 1140 3447 95.10061668807 283.80215934936 8 94.10061668807 282.80215934936 1680.5859330598 379827.24924872
47	62987 38 1140 1140 95.10061668807 95.10061668807 1 94.10061668807 94.10061668807 94.10061668807 8854.9260610751
48	63025 112 1362 6053 109.35481377508 737.27405520603 4 180 180 720 129600
49	63137 160 1362 6053 109.35481377508 737.27405520603 4 108.35481377508 736.27405520603 1551.7178210936 851899.25597265
50	63297 40 1362 1362 109.35481377508 109.35481377508 1 108.35481377508 108.35481377508 108.35481377508 11740.765668232
51	63337 223 1560 3055 127.07901534569 248.5902052635 8 180 180 1440 259200
52	63560 318 1560 3055 127.07901534569 248.5902052635 8 126.07901534569 247.5902052635 1511.8897876034 297744.4254852
53	63878 40 1560 1560 127.07901534569 127.07901534569 1 126.07901534569 126.07901534569 126.07901534569 15895.918110539
54	63918 308 1566 5978 127.97125729945 722.71361119792 11 180 180 1980 356400
55	64226 440 1566 5978 127.97125729945 722.71361119792 11 126.97125729945 721.71361119792 5582.7944217376 3207748.2601217
56	64666 40 1566 1566 127.97125729945 127.97125729945 1 126.97125729945 126.97125729945 126.97125729945 16121.700180203
57	64706 167 1591 4449 130.75796379651 483.39289486467 6 180 180 1080 194400
58	64873 238 1591 4449 130.75796379651 483.39289486467 6 129.75796379651 482.39289486467 1571.0248970914 485399.45338609
59	65111 40 1591 1591 130.75796379651 130.75796379651 1 129.75796379651 129.75796379651 129.75796379651 16837.129168616
60	65151 139 1937 3382 153.39137177327 275.47896707542 5 180 180 900 162000
61	65290 198 1937 3382 153.39137177327 275.47896707542 5 152.39137177327 274.47896707542 1119.4713042651 259137.75255629
62	65488 40 1937 1937 153.39137177327 153.39137177327 1 152.39137177327 152.39137177327 152.39137177327 23223.130190939
63	65528 196 1967 3406 156.38113077491 277.58772748285 7 180 180 1260 226800
64	65724 280 1967 3406 156.38113077491 277.58772748285 7 155.38113077491 276.58772748285 1553.4823284301 354506.15069247
65	66004 40 1967 1967 156.38113077491 156.38113077491 1 155.38113077491 155.38113077491 155.38113077491 24143.29580089
66	66044 167 2042 5337 164.4876134452 636.03453435217 6 180 180 1080 194400
67	66211 238 2042 5337 164.4876134452 636.03453435217 6 163.4876134452 635.03453435217 2400.3956412976 1195392.0540375
68	66449 38 2042 2042 164.4876134452 164.4876134452 1 163.4876134452 163.4876134452 163.4876134452 26728.199750007
69	66487 307 2077 6034 166.86394548853 734.29535223281 11 180 180 1980 356400
70	66794 438 2077 6034 166.86394548853 734.29535223281 11 165.86394548853 733.29535223281 5300.3352271197 3026472.5850603
71	67232 40 2077 2077 166.86394548853 166.86394548853 1 165.86394548853 165.86394548853 165.86394548853 27510.848413022
72	67272 168 2907 5892 235.45665639315 709.69906321707 6 180 180 1080 194400
73	67440 240 2907 5892 235.45665639315 709.69906321707 6 234.45665639315 708.69906321707 3199.1016227632 1853481.2993873
74	67680 40 2907 2907 235.45665639315 235.45665639315 1 234.45665639315 234.45665639315 234.45665639315 54969.923727056
75	67720 84 3292 4952 261.79726676194 564.42391144571 3 180 180 540 97200
76	67804 120 3292 4952 261.79726676194 564.42391144571 3 260.79726676194 563.42391144571 1161.1444242429 498978.99205823
77	67924 40 3292 3292 261.79726676194 261.79726676194 1 260.79726676194 260.79726676194 260.79726676194 68015.214350498
78	67964 112 3453 6118 285.19358970435 748.98629115991 4 180 180 720 129600
79	68076 160 3453 6118 285.19358970435 748.98629115991 4 284.19358970435 747.98629115991 2420.222614138 1603687.6604385
80	68236 40 3453 3453 285.19358970435 285.19358970435 1 284.19358970435 284.19358970435 284.19358970435 80765.996429044
81	68276 193 3903 5918 359.7319635456 712.8445475302 7 180 180 1260 226800
82	68469 274 3903 5918 359.7319635456 712.8445475302 7 358.7319635456 711.8445475302 3930.8602956792 2326067.4542496
83	68743 38 3903 3903 359.7319635456 359.7319635456 1 358.7319635456 358.7319635456 358.7319635456 128688.62166928
84	68781 84 5404 6038 645.47704886975 734.46078050863 3 180 180 540 97200
85	68865 120 5404 6038 645.47704886975 734.46078050863 3 644.47704886975 733.46078050863 2052.048999539 1407741.2527995
86	68985 40 5404 5404 645.47704886975 645.47704886975 1 644.47704886975 644.47704886975 644.47704886975 415350.66651986

