file 75154 1780691888                                           
version 3
run General-4-20260605-22:38:05-1048198
attr configname General
attr datetime 20260605-22:38:05
attr datetimef 20260605-223805
attr experiment General
attr inifile Test_MLModel_1.ini
attr iterationvars $0=63029
attr iterationvarsd 63029
attr iterationvarsf 63029-
attr measurement $0=63029
attr network Florasat.Test_Individual.Florasat_Individual_Sats
attr processid 1048198
attr repetition 4
attr replication #4
attr resultdir results
attr runnumber 4
attr seedset 4
config *.satellite[0].NoradModule.raan 185
config *.stats_altitude 670
config *.stats_raan 185
config image-path ../../images:../../../../samples/inet4.5_2/images
config network Florasat.Test_Individual.Florasat_Individual_Sats
config rng-class cMersenneTwister
config *.**.result-recording-modes -
config **.result-recording-modes -
config **.statistic-recording true
config **.scalar-recording true
config **.vector-recording true
config **.vector-record-eventnumbers true
config repeat 10
config seed-0-mt 63029
config sim-time-limit 749s
config simtime-resolution -11
config **.stats_altitude 670
config **.stats_raan 185
config *.radioMedium.backgroundNoise.power -110dBm
config *.radioMedium.mediumLimitCache.centerFrequency 868MHz
config *.radioMedium.mediumLimitCache.maxTransmissionDuration 4s
config *.radioMedium.mediumLimitCache.minInterferenceTime 0s
config **.numSatellites 1
config *.satellite[*].mobilityType "\"Sat_Mob_SatelliteMobility_Standalone\""
config *.satellite[*].noradModuleType "\"Sat_Mob_NoradA\""
config **.satellite[*].**.initFromDisplayString false
config *.satellite[*].mobility.faceForward true
config *.satellite[*].mobility.updateInterval 20s
config *.satellite[*].NoradModule.satName "\"FLoRaSat\""
config *.satellite[*].NoradModule.satIndex -1
config *.satellite[*].NoradModule.baseYear 20
config *.satellite[*].NoradModule.baseDay 1.5
config *.satellite[*].NoradModule.planes 1
config *.satellite[*].NoradModule.satPerPlane 1
config *.satellite[*].NoradModule.eccentricity 0.000001
config *.satellite[*].NoradModule.inclination 98
config *.satellite[*].NoradModule.altitude 670
config *.satellite[0].NoradModule.raan 185
config *.satellite[0].NoradModule.meanAnomaly 195
config *.satellite[*].phyDSL.radio.receiver.enableCollisionOverlap true
config *.satellite[*].phyDSL.radio.receiver.minCollisionOverlap 0s
config *.satellite[*].phyDSL.radio.antenna.typename ConstantGainAntenna
config *.satellite[*].phyDSL.radio.antenna.mobilityModule "\"^.^.^.mobility\""
config *.satellite[*].phyISL.radio.antenna.mobilityModule "\"^.^.^.mobility\""
config *.satellite[*].phyGSL.radio.antenna.mobilityModule "\"^.^.^.mobility\""
config *.satellite[*].phyDSL.radio.antenna.gain 12dB
config *.satellite[*].net.routingType "\"Null_Routing\""
config *.terminal[*].net.routingType "\"Ter_Null_Routing\""
config *.**.numGroundLinks 40
config *.satellite[*].**.interfaceTableModule "\"\""
config **.radioMedium.typename LoRaMedium
config **.radioMedium.analogModel.typename LoRaAnalogModel
config **.intraPlaneIslDisabled false
config **.interPlaneIslDisabled false
config **.numTerminals 30
config *.terminal[*].phy.radio.antenna.mobilityModule "\"^.^.^.mob\""
config *.terminal[*].dlk.mac.interfaceTableModule "\"\""
config *.terminal[*].dlk.energySourceModule "\"\""
config *.terminal[*].dlk.mac.LoRaTP "intuniform(12, 14)"
config *.terminal[*].dlk.mac.LoRaSF "intuniform(10, 12)"
config *.terminal[*].dlk.mac.useMLBox true
config *.terminal[*].dlk.mac.mlBox.modelPath "\"/home/ylnner/Documents/omnet++/omnetpp-6.3.0/projects/florasat_v4_ult_routing/simulations/Test_Individual/mlmodels/bilstm_scripted.pt\""
config **.numberOfPacketsToSend 0
config **.timeToFirstPacket 1s
config **.timeToNextPacket 50s
config *.terminal[0].mob.radius 0.0
config *.terminal[0].mob.centerLatitude 54.978
config *.terminal[0].mob.centerLongitude -1.617
config *.terminal[1].mob.radius 0.0
config *.terminal[1].mob.centerLatitude 52.630
config *.terminal[1].mob.centerLongitude -1.139
config *.terminal[2].mob.radius 0.0
config *.terminal[2].mob.centerLatitude 52.612
config *.terminal[2].mob.centerLongitude -6.295
config *.terminal[3].mob.radius 0.0
config *.terminal[3].mob.centerLatitude 47.243
config *.terminal[3].mob.centerLongitude 6.024
config *.terminal[4].mob.radius 0.0
config *.terminal[4].mob.centerLatitude 43.610
config *.terminal[4].mob.centerLongitude 3.876
config *.terminal[5].mob.radius 0.0
config *.terminal[5].mob.centerLatitude 49.443
config *.terminal[5].mob.centerLongitude 1.099
config *.terminal[6].mob.radius 0.0
config *.terminal[6].mob.centerLatitude 37.992
config *.terminal[6].mob.centerLongitude -1.130
config *.terminal[7].mob.radius 0.0
config *.terminal[7].mob.centerLatitude 40.965
config *.terminal[7].mob.centerLongitude -5.664
config *.terminal[8].mob.radius 0.0
config *.terminal[8].mob.centerLatitude 40.657
config *.terminal[8].mob.centerLongitude -7.914
config *.terminal[9].mob.radius 0.0
config *.terminal[9].mob.centerLatitude 51.340
config *.terminal[9].mob.centerLongitude 12.373
config *.terminal[10].mob.radius 0.0
config *.terminal[10].mob.centerLatitude 51.455
config *.terminal[10].mob.centerLongitude 7.011
config *.terminal[11].mob.radius 0.0
config *.terminal[11].mob.centerLatitude 49.452
config *.terminal[11].mob.centerLongitude 11.076
config *.terminal[12].mob.radius 0.0
config *.terminal[12].mob.centerLatitude 43.769
config *.terminal[12].mob.centerLongitude 11.255
config *.terminal[13].mob.radius 0.0
config *.terminal[13].mob.centerLatitude 41.117
config *.terminal[13].mob.centerLongitude 16.871
config *.terminal[14].mob.radius 0.0
config *.terminal[14].mob.centerLatitude 52.132
config *.terminal[14].mob.centerLongitude 5.291
config *.terminal[15].mob.radius 0.0
config *.terminal[15].mob.centerLatitude 50.411
config *.terminal[15].mob.centerLongitude 4.444
config *.terminal[16].mob.radius 0.0
config *.terminal[16].mob.centerLatitude 47.559
config *.terminal[16].mob.centerLongitude 7.588
config *.terminal[17].mob.radius 0.0
config *.terminal[17].mob.centerLatitude 55.403
config *.terminal[17].mob.centerLongitude 10.402
config *.terminal[18].mob.radius 0.0
config *.terminal[18].mob.centerLatitude 59.858
config *.terminal[18].mob.centerLongitude 17.638
config *.terminal[19].mob.radius 0.0
config *.terminal[19].mob.centerLatitude 60.451
config *.terminal[19].mob.centerLongitude 22.266
config *.terminal[20].mob.radius 0.0
config *.terminal[20].mob.centerLatitude 56.325
config *.terminal[20].mob.centerLongitude 22.349
config *.terminal[21].mob.radius 0.0
config *.terminal[21].mob.centerLatitude 49.883
config *.terminal[21].mob.centerLongitude 18.568
config *.terminal[22].mob.radius 0.0
config *.terminal[22].mob.centerLatitude 47.531
config *.terminal[22].mob.centerLongitude 21.627
config *.terminal[23].mob.radius 0.0
config *.terminal[23].mob.centerLatitude 44.179
config *.terminal[23].mob.centerLongitude 28.649
config *.terminal[24].mob.radius 0.0
config *.terminal[24].mob.centerLatitude 45.327
config *.terminal[24].mob.centerLongitude 14.442
config *.terminal[25].mob.radius 0.0
config *.terminal[25].mob.centerLatitude 40.694
config *.terminal[25].mob.centerLongitude 30.400
config *.terminal[26].mob.radius 0.0
config *.terminal[26].mob.centerLatitude 37.066
config *.terminal[26].mob.centerLongitude 37.383
config *.terminal[27].mob.radius 0.0
config *.terminal[27].mob.centerLatitude 64.836
config *.terminal[27].mob.centerLongitude -23.708
config *.terminal[28].mob.radius 0.0
config *.terminal[28].mob.centerLatitude 28.099
config *.terminal[28].mob.centerLongitude -17.113
config *.terminal[29].mob.radius 0.0
config *.terminal[29].mob.centerLatitude 34.921
config *.terminal[29].mob.centerLongitude 33.623
config **.numStations 3
config **.numStations 3
config *.station[0].mobility.latitude 55.752
config *.station[0].mobility.longitude 37.616
config *.station[0].cityName "\"Moscow\""
config *.station[0].groundStationId 7
config *.station[0].routerAddr "\"10.0.0.29\""
config *.station[0].serving "\"10.0.0.29\""
config *.station[1].mobility.latitude 28.652
config *.station[1].mobility.longitude 77.231
config *.station[1].cityName "\"Delhi\""
config *.station[1].groundStationId 11
config *.station[1].routerAddr "\"10.0.0.45\""
config *.station[1].serving "\"10.0.0.45\""
config *.station[2].mobility.latitude 25.35
config *.station[2].mobility.longitude 51.24
config *.station[2].cityName "\"Katar\""
config *.station[2].groundStationId 19
config *.station[2].routerAddr "\"10.0.0.77\""
config *.station[2].serving "\"10.0.0.77\""
config *.visualizer.canvasVisualizer.mediumVisualizer.typename ""
config *.visualizer.*.radioVisualizer.displayAntennaLobes true
config *.visualizer.*.dataLinkVisualizer.displayLinks true
config *.visualizer.*.mobilityVisualizer.displayMovementTrails true
config *.visualizer.*.mobilityVisualizer.movementTrailLineWidth 1
config *.visualizer.*.mobilityVisualizer.trailLength 3000
config **.ttxStart_max 30s
config **.ttxIdle_min 10s
config **.ttxIdle_max 25s
config **.Ntw 2
config **.Ntx 45
config **.ttwDuration 550s

vector 0 Florasat_Individual_Sats.satellite[0].dlkDSL.mac "Satellite Position when Repetition Received" ETV
vector 1 Florasat_Individual_Sats.satellite[0].dlkDSL.mac "Repetition Position for Node 343 at Satellite" ETV
vector 2 Florasat_Individual_Sats.satellite[0].dlkDSL.mac "All Nodes Repetition Generation Delay at Satellite" ETV
vector 3 Florasat_Individual_Sats.satellite[0].dlkDSL.mac "Repetition Generation Delay for Node 343 at Satellite" ETV
vector 4 Florasat_Individual_Sats.satellite[0].dlkDSL.mac "All Nodes Message Generation Delay at Satellite" ETV
vector 5 Florasat_Individual_Sats.satellite[0].dlkDSL.mac "Message Generation Delay for Node 343 at Satellite" ETV
vector 6 Florasat_Individual_Sats.satellite[0].net.packetHandler "packets received" ETV
vector 7 Florasat_Individual_Sats.satellite[0].net.packetHandler "dropped unroutable" ETV
vector 8 Florasat_Individual_Sats.satellite[0].net.packetHandler "packets dropped" ETV
vector 9 Florasat_Individual_Sats.satellite[0].dlkDSL.mac "Repetition Position for Node 58 at Satellite" ETV
vector 10 Florasat_Individual_Sats.satellite[0].dlkDSL.mac "Repetition Generation Delay for Node 58 at Satellite" ETV
vector 11 Florasat_Individual_Sats.satellite[0].dlkDSL.mac "Message Generation Delay for Node 58 at Satellite" ETV
vector 12 Florasat_Individual_Sats.satellite[0].dlkDSL.mac "Repetition Position for Node 313 at Satellite" ETV
vector 13 Florasat_Individual_Sats.satellite[0].dlkDSL.mac "Repetition Generation Delay for Node 313 at Satellite" ETV
vector 14 Florasat_Individual_Sats.satellite[0].dlkDSL.mac "Message Generation Delay for Node 313 at Satellite" ETV
vector 15 Florasat_Individual_Sats.satellite[0].dlkDSL.mac "Repetition Position for Node 358 at Satellite" ETV
vector 16 Florasat_Individual_Sats.satellite[0].dlkDSL.mac "Repetition Generation Delay for Node 358 at Satellite" ETV
vector 17 Florasat_Individual_Sats.satellite[0].dlkDSL.mac "Message Generation Delay for Node 358 at Satellite" ETV
vector 18 Florasat_Individual_Sats.satellite[0].dlkDSL.mac "Repetition Position for Node 283 at Satellite" ETV
vector 19 Florasat_Individual_Sats.satellite[0].dlkDSL.mac "Repetition Generation Delay for Node 283 at Satellite" ETV
vector 20 Florasat_Individual_Sats.satellite[0].dlkDSL.mac "Message Generation Delay for Node 283 at Satellite" ETV
vector 21 Florasat_Individual_Sats.satellite[0].dlkDSL.mac "Repetition Position for Node 73 at Satellite" ETV
vector 22 Florasat_Individual_Sats.satellite[0].dlkDSL.mac "Repetition Generation Delay for Node 73 at Satellite" ETV
vector 23 Florasat_Individual_Sats.satellite[0].dlkDSL.mac "Message Generation Delay for Node 73 at Satellite" ETV
vector 24 Florasat_Individual_Sats.satellite[0].dlkDSL.mac "Repetition Position for Node 328 at Satellite" ETV
vector 25 Florasat_Individual_Sats.satellite[0].dlkDSL.mac "Repetition Generation Delay for Node 328 at Satellite" ETV
vector 26 Florasat_Individual_Sats.satellite[0].dlkDSL.mac "Message Generation Delay for Node 328 at Satellite" ETV
vector 27 Florasat_Individual_Sats.satellite[0].dlkDSL.mac "Repetition Position for Node 88 at Satellite" ETV
vector 28 Florasat_Individual_Sats.satellite[0].dlkDSL.mac "Repetition Generation Delay for Node 88 at Satellite" ETV
vector 29 Florasat_Individual_Sats.satellite[0].dlkDSL.mac "Message Generation Delay for Node 88 at Satellite" ETV
vector 30 Florasat_Individual_Sats.satellite[0].dlkDSL.mac "Repetition Position for Node 193 at Satellite" ETV
vector 31 Florasat_Individual_Sats.satellite[0].dlkDSL.mac "Repetition Generation Delay for Node 193 at Satellite" ETV
vector 32 Florasat_Individual_Sats.satellite[0].dlkDSL.mac "Message Generation Delay for Node 193 at Satellite" ETV
vector 33 Florasat_Individual_Sats.satellite[0].dlkDSL.mac "Repetition Position for Node 268 at Satellite" ETV
vector 34 Florasat_Individual_Sats.satellite[0].dlkDSL.mac "Repetition Generation Delay for Node 268 at Satellite" ETV
vector 35 Florasat_Individual_Sats.satellite[0].dlkDSL.mac "Message Generation Delay for Node 268 at Satellite" ETV
vector 36 Florasat_Individual_Sats.satellite[0].dlkDSL.mac "Repetition Position for Node 373 at Satellite" ETV
vector 37 Florasat_Individual_Sats.satellite[0].dlkDSL.mac "Repetition Generation Delay for Node 373 at Satellite" ETV
vector 38 Florasat_Individual_Sats.satellite[0].dlkDSL.mac "Message Generation Delay for Node 373 at Satellite" ETV
vector 39 Florasat_Individual_Sats.satellite[0].dlkDSL.mac "Repetition Position for Node 178 at Satellite" ETV
vector 40 Florasat_Individual_Sats.satellite[0].dlkDSL.mac "Repetition Generation Delay for Node 178 at Satellite" ETV
vector 41 Florasat_Individual_Sats.satellite[0].dlkDSL.mac "Message Generation Delay for Node 178 at Satellite" ETV
vector 42 Florasat_Individual_Sats.satellite[0].dlkDSL.mac "Repetition Position for Node 298 at Satellite" ETV
vector 43 Florasat_Individual_Sats.satellite[0].dlkDSL.mac "Repetition Generation Delay for Node 298 at Satellite" ETV
vector 44 Florasat_Individual_Sats.satellite[0].dlkDSL.mac "Message Generation Delay for Node 298 at Satellite" ETV
vector 45 Florasat_Individual_Sats.satellite[0].dlkDSL.mac "Repetition Position for Node 118 at Satellite" ETV
vector 46 Florasat_Individual_Sats.satellite[0].dlkDSL.mac "Repetition Generation Delay for Node 118 at Satellite" ETV
vector 47 Florasat_Individual_Sats.satellite[0].dlkDSL.mac "Message Generation Delay for Node 118 at Satellite" ETV
vector 48 Florasat_Individual_Sats.satellite[0].dlkDSL.mac "Repetition Position for Node 223 at Satellite" ETV
vector 49 Florasat_Individual_Sats.satellite[0].dlkDSL.mac "Repetition Generation Delay for Node 223 at Satellite" ETV
vector 50 Florasat_Individual_Sats.satellite[0].dlkDSL.mac "Message Generation Delay for Node 223 at Satellite" ETV
vector 51 Florasat_Individual_Sats.satellite[0].dlkDSL.mac "Repetition Position for Node 133 at Satellite" ETV
vector 52 Florasat_Individual_Sats.satellite[0].dlkDSL.mac "Repetition Generation Delay for Node 133 at Satellite" ETV
vector 53 Florasat_Individual_Sats.satellite[0].dlkDSL.mac "Message Generation Delay for Node 133 at Satellite" ETV
vector 54 Florasat_Individual_Sats.satellite[0].dlkDSL.mac "Repetition Position for Node 208 at Satellite" ETV
vector 55 Florasat_Individual_Sats.satellite[0].dlkDSL.mac "Repetition Generation Delay for Node 208 at Satellite" ETV
vector 56 Florasat_Individual_Sats.satellite[0].dlkDSL.mac "Message Generation Delay for Node 208 at Satellite" ETV
vector 57 Florasat_Individual_Sats.satellite[0].dlkDSL.mac "Repetition Position for Node 148 at Satellite" ETV
vector 58 Florasat_Individual_Sats.satellite[0].dlkDSL.mac "Repetition Generation Delay for Node 148 at Satellite" ETV
vector 59 Florasat_Individual_Sats.satellite[0].dlkDSL.mac "Message Generation Delay for Node 148 at Satellite" ETV
vector 60 Florasat_Individual_Sats.satellite[0].dlkDSL.mac "Repetition Position for Node 493 at Satellite" ETV
vector 61 Florasat_Individual_Sats.satellite[0].dlkDSL.mac "Repetition Generation Delay for Node 493 at Satellite" ETV
vector 62 Florasat_Individual_Sats.satellite[0].dlkDSL.mac "Message Generation Delay for Node 493 at Satellite" ETV
vector 63 Florasat_Individual_Sats.satellite[0].dlkDSL.mac "Repetition Position for Node 238 at Satellite" ETV
vector 64 Florasat_Individual_Sats.satellite[0].dlkDSL.mac "Repetition Generation Delay for Node 238 at Satellite" ETV
vector 65 Florasat_Individual_Sats.satellite[0].dlkDSL.mac "Message Generation Delay for Node 238 at Satellite" ETV
vector 66 Florasat_Individual_Sats.satellite[0].dlkDSL.mac "Repetition Position for Node 103 at Satellite" ETV
vector 67 Florasat_Individual_Sats.satellite[0].dlkDSL.mac "Repetition Generation Delay for Node 103 at Satellite" ETV
vector 68 Florasat_Individual_Sats.satellite[0].dlkDSL.mac "Message Generation Delay for Node 103 at Satellite" ETV
vector 69 Florasat_Individual_Sats.satellite[0].dlkDSL.mac "Repetition Position for Node 253 at Satellite" ETV
vector 70 Florasat_Individual_Sats.satellite[0].dlkDSL.mac "Repetition Generation Delay for Node 253 at Satellite" ETV
vector 71 Florasat_Individual_Sats.satellite[0].dlkDSL.mac "Message Generation Delay for Node 253 at Satellite" ETV
vector 72 Florasat_Individual_Sats.satellite[0].dlkDSL.mac "Repetition Position for Node 403 at Satellite" ETV
vector 73 Florasat_Individual_Sats.satellite[0].dlkDSL.mac "Repetition Generation Delay for Node 403 at Satellite" ETV
vector 74 Florasat_Individual_Sats.satellite[0].dlkDSL.mac "Message Generation Delay for Node 403 at Satellite" ETV
vector 75 Florasat_Individual_Sats.satellite[0].dlkDSL.mac "Repetition Position for Node 163 at Satellite" ETV
vector 76 Florasat_Individual_Sats.satellite[0].dlkDSL.mac "Repetition Generation Delay for Node 163 at Satellite" ETV
vector 77 Florasat_Individual_Sats.satellite[0].dlkDSL.mac "Message Generation Delay for Node 163 at Satellite" ETV
vector 78 Florasat_Individual_Sats.satellite[0].dlkDSL.mac "Repetition Position for Node 388 at Satellite" ETV
vector 79 Florasat_Individual_Sats.satellite[0].dlkDSL.mac "Repetition Generation Delay for Node 388 at Satellite" ETV
vector 80 Florasat_Individual_Sats.satellite[0].dlkDSL.mac "Message Generation Delay for Node 388 at Satellite" ETV
vector 81 Florasat_Individual_Sats.satellite[0].dlkDSL.mac "Repetition Position for Node 433 at Satellite" ETV
vector 82 Florasat_Individual_Sats.satellite[0].dlkDSL.mac "Repetition Generation Delay for Node 433 at Satellite" ETV
vector 83 Florasat_Individual_Sats.satellite[0].dlkDSL.mac "Message Generation Delay for Node 433 at Satellite" ETV
vector 84 Florasat_Individual_Sats.satellite[0].dlkDSL.mac "Repetition Position for Node 418 at Satellite" ETV
vector 85 Florasat_Individual_Sats.satellite[0].dlkDSL.mac "Repetition Generation Delay for Node 418 at Satellite" ETV
vector 86 Florasat_Individual_Sats.satellite[0].dlkDSL.mac "Message Generation Delay for Node 418 at Satellite" ETV
vector 87 Florasat_Individual_Sats.satellite[0].dlkDSL.mac "Repetition Position for Node 478 at Satellite" ETV
vector 88 Florasat_Individual_Sats.satellite[0].dlkDSL.mac "Repetition Generation Delay for Node 478 at Satellite" ETV
vector 89 Florasat_Individual_Sats.satellite[0].dlkDSL.mac "Message Generation Delay for Node 478 at Satellite" ETV
0	19321 6795 150 6382 2.82851628022 748.76544452798 254 180 180 45720 8229600
1	26116 393 150 3475 2.82851628022 278.73935899809 15 180 180 2700 486000
2	26509 9795 150 6382 2.82851628022 748.76544452798 254 1.82851628022 747.76544452798 82995.550810045 36801421.481552
3	36304 565 150 3475 2.82851628022 278.73935899809 15 1.82851628022 277.73935899809 2028.0582731593 373384.14703264
4	36869 1048 150 4820 2.82851628022 505.42160967926 28 1.82851628022 504.42160967926 3797.322760851 917537.30244877
5	37917 34 150 150 2.82851628022 2.82851628022 1 1.82851628022 1.82851628022 1.82851628022 3.3434717870296
6	37951 6687 151 6383 2.82851628022 748.76544452798 254 1 254 32385 5494655
7	44638 6687 151 6383 2.82851628022 748.76544452798 254 1 254 32385 5494655
8	51325 6687 151 6383 2.82851628022 748.76544452798 254 1 254 32385 5494655
9	58012 266 174 5873 9.92182333701 671.20605668616 10 180 180 1800 324000
10	58278 393 174 5873 9.92182333701 671.20605668616 10 8.92182333701 670.20605668616 2858.0870860271 1232706.093198
11	58671 35 174 174 9.92182333701 9.92182333701 1 8.92182333701 8.92182333701 8.92182333701 79.598931656816
12	58706 194 290 3770 23.25245504713 324.31428485066 7 180 180 1260 226800
13	58900 277 290 3770 23.25245504713 324.31428485066 7 22.25245504713 323.31428485066 1454.1052318975 357972.47617082
14	59177 37 290 290 23.25245504713 23.25245504713 1 22.25245504713 22.25245504713 22.25245504713 495.17175562454
15	59214 332 352 5202 29.47253358298 564.74116675536 12 180 180 2160 388800
16	59546 474 352 5202 29.47253358298 564.74116675536 12 28.47253358298 563.74116675536 2673.9312852961 842438.41256383
17	60020 37 352 352 29.47253358298 29.47253358298 1 28.47253358298 28.47253358298 28.47253358298 810.68516863392
18	60057 305 365 5952 30.72198084848 689.70345584154 11 180 180 1980 356400
19	60362 434 365 5952 30.72198084848 689.70345584154 11 29.72198084848 688.70345584154 3370.1991317263 1554616.4846885
20	60796 37 365 365 30.72198084848 30.72198084848 1 29.72198084848 29.72198084848 29.72198084848 883.39614555741
21	60833 333 524 5176 44.68179713113 559.64173870155 12 180 180 2160 388800
22	61166 475 524 5176 44.68179713113 559.64173870155 12 43.68179713113 558.64173870155 3576.441126844 1458940.2194242
23	61641 37 524 524 44.68179713113 44.68179713113 1 43.68179713113 43.68179713113 43.68179713113 1908.0994006052
24	61678 415 555 4525 48.9774665941 456.09265705165 15 180 180 2700 486000
25	62093 591 555 4525 48.9774665941 456.09265705165 15 47.9774665941 455.09265705165 3258.4310517306 923616.18640954
26	62684 35 555 555 48.9774665941 48.9774665941 1 47.9774665941 47.9774665941 47.9774665941 2301.837300788
27	62719 303 573 5489 50.82609782405 609.31917831245 11 180 180 1980 356400
28	63022 431 573 5489 50.82609782405 609.31917831245 11 49.82609782405 608.31917831245 3101.7040922789 1233697.7032073
29	63453 37 573 573 50.82609782405 50.82609782405 1 49.82609782405 49.82609782405 49.82609782405 2482.6400243718
30	63490 166 667 5812 51.17879335864 658.39077850084 6 180 180 1080 194400
31	63656 237 667 5812 51.17879335864 658.39077850084 6 50.17879335864 657.39077850084 1730.4774504606 711062.88414554
32	63893 37 667 667 51.17879335864 51.17879335864 1 50.17879335864 50.17879335864 50.17879335864 2517.9113029291
33	63930 138 740 4206 59.08869238099 405.80640281427 5 180 180 900 162000
34	64068 197 740 4206 59.08869238099 405.80640281427 5 58.08869238099 404.80640281427 1111.5344549118 310916.79738445
35	64265 37 740 740 59.08869238099 59.08869238099 1 58.08869238099 58.08869238099 58.08869238099 3374.2961825333
36	64302 194 833 3407 67.72948078921 271.19592488853 7 180 180 1260 226800
37	64496 277 833 3407 67.72948078921 271.19592488853 7 66.72948078921 270.19592488853 1300.6243794041 278547.31935445
38	64773 37 833 833 67.72948078921 67.72948078921 1 66.72948078921 66.72948078921 66.72948078921 4452.8236063975
39	64810 334 854 6271 70.40117421868 728.93263035899 12 180 180 2160 388800
40	65144 477 854 6271 70.40117421868 728.93263035899 12 69.40117421868 727.93263035899 5776.1487511902 3250738.8307418
41	65621 37 854 854 70.40117421868 70.40117421868 1 69.40117421868 69.40117421868 69.40117421868 4816.5229829316
42	65658 251 1036 4691 89.09217994721 495.91202558196 9 180 180 1620 291600
43	65909 358 1036 4691 89.09217994721 495.91202558196 9 88.09217994721 494.91202558196 2098.8687100155 660622.73657673
44	66267 38 1036 1036 89.09217994721 89.09217994721 1 88.09217994721 88.09217994721 88.09217994721 7760.2321678516
45	66305 419 1299 6370 102.09458356549 747.8026590677 15 180 180 2700 486000
46	66724 598 1299 6370 102.09458356549 747.8026590677 15 101.09458356549 746.8026590677 5246.5860284501 2337743.5234809
47	67322 40 1299 1299 102.09458356549 102.09458356549 1 101.09458356549 101.09458356549 101.09458356549 10220.11482628
48	67362 251 1448 5184 117.78992846136 561.64604110404 9 180 180 1620 291600
49	67613 358 1448 5184 117.78992846136 561.64604110404 9 116.78992846136 560.64604110404 2358.1964393538 804351.33185208
50	67971 40 1448 1448 117.78992846136 117.78992846136 1 116.78992846136 116.78992846136 116.78992846136 13639.88739001
51	68011 280 1618 4506 132.82411020475 453.42810713447 10 180 180 1800 324000
52	68291 400 1618 4506 132.82411020475 453.42810713447 10 131.82411020475 452.42810713447 2578.2961401115 751536.39549839
53	68691 40 1618 1618 132.82411020475 132.82411020475 1 131.82411020475 131.82411020475 131.82411020475 17377.596031274
54	68731 224 1802 5508 149.42278660893 612.43151522185 8 180 180 1440 259200
55	68955 320 1802 5508 149.42278660893 612.43151522185 8 148.42278660893 611.43151522185 2539.2245322716 1005311.973541
56	69275 40 1802 1802 149.42278660893 149.42278660893 1 148.42278660893 148.42278660893 148.42278660893 22029.32358476
57	69315 335 1810 6382 150.32795025096 748.76544452798 12 180 180 2160 388800
58	69650 478 1810 6382 150.32795025096 748.76544452798 12 149.32795025096 747.76544452798 5869.8792539756 3471232.8658917
59	70128 40 1810 1810 150.32795025096 150.32795025096 1 149.32795025096 149.32795025096 149.32795025096 22298.836726153
60	70168 248 1814 6183 150.80927246114 713.26792611254 9 180 180 1620 291600
61	70416 352 1814 6183 150.80927246114 713.26792611254 9 149.80927246114 712.26792611254 3774.2692790258 2055054.6499706
62	70768 40 1814 1814 150.80927246114 150.80927246114 1 149.80927246114 149.80927246114 149.80927246114 22442.818115336
63	70808 305 1928 6137 153.70730765975 705.76911564561 11 180 180 1980 356400
64	71113 434 1928 6137 153.70730765975 705.76911564561 11 152.70730765975 704.76911564561 4761.3050902396 2449504.1369523
65	71547 40 1928 1928 153.70730765975 153.70730765975 1 152.70730765975 152.70730765975 152.70730765975 23319.52181269
66	71587 224 2007 5826 159.52880084042 661.46953418611 8 180 180 1440 259200
67	71811 320 2007 5826 159.52880084042 661.46953418611 8 158.52880084042 660.46953418611 3032.3446270392 1411725.8234667
68	72131 40 2007 2007 159.52880084042 159.52880084042 1 158.52880084042 158.52880084042 158.52880084042 25131.380695902
69	72171 196 2142 6098 173.81991733311 701.71612337677 7 180 180 1260 226800
70	72367 280 2142 6098 173.81991733311 701.71612337677 7 172.81991733311 700.71612337677 3046.900959573 1505389.879028
71	72647 40 2142 2142 173.81991733311 173.81991733311 1 172.81991733311 172.81991733311 172.81991733311 29866.723827023
72	72687 195 2682 5459 212.55869269583 604.35966906583 7 180 180 1260 226800
73	72882 278 2682 5459 212.55869269583 604.35966906583 7 211.55869269583 603.35966906583 2686.7667483974 1141688.7543996
74	73160 40 2682 2682 212.55869269583 212.55869269583 1 211.55869269583 211.55869269583 211.55869269583 44757.080455169
75	73200 278 3092 5805 247.53490001722 657.03800545018 10 180 180 1800 324000
76	73478 396 3092 5805 247.53490001722 657.03800545018 10 246.53490001722 656.03800545018 4672.1288807983 2351106.686207
77	73874 40 3092 3092 247.53490001722 247.53490001722 1 246.53490001722 246.53490001722 246.53490001722 60779.456926501
78	73914 111 3455 4921 276.07587514774 529.9569618595 4 180 180 720 129600
79	74025 158 3455 4921 276.07587514774 529.9569618595 4 275.07587514774 528.9569618595 1621.3423265476 702182.96133142
80	74183 40 3455 3455 276.07587514774 276.07587514774 1 275.07587514774 275.07587514774 275.07587514774 75666.737088295
81	74223 55 3528 4397 289.32092600263 449.9048253055 2 180 180 360 64800
82	74278 78 3528 4397 289.32092600263 449.9048253055 2 288.32092600263 448.9048253055 737.22575130813 284644.49855358
83	74356 40 3528 3528 289.32092600263 289.32092600263 1 288.32092600263 288.32092600263 288.32092600263 83128.956371014
84	74396 140 4289 5889 425.91310858254 673.93400035443 5 180 180 900 162000
85	74536 200 4289 5889 425.91310858254 673.93400035443 5 424.91310858254 672.93400035443 2784.3015663637 1583933.0768456
86	74736 40 4289 4289 425.91310858254 425.91310858254 1 424.91310858254 424.91310858254 424.91310858254 180551.14984528
87	74776 139 4820 5938 505.42160967926 685.68598232097 5 180 180 900 162000
88	74915 198 4820 5938 505.42160967926 685.68598232097 5 504.42160967926 684.68598232097 2948.172161648 1756754.633635
89	75113 40 4820 4820 505.42160967926 505.42160967926 1 504.42160967926 504.42160967926 504.42160967926 254441.16031142

