file 67648 1780691904                                           
version 3
run General-9-20260605-22:38:21-1048198
attr configname General
attr datetime 20260605-22:38:21
attr datetimef 20260605-223821
attr experiment General
attr inifile Test_MLModel_1.ini
attr iterationvars $0=92115
attr iterationvarsd 92115
attr iterationvarsf 92115-
attr measurement $0=92115
attr network Florasat.Test_Individual.Florasat_Individual_Sats
attr processid 1048198
attr repetition 9
attr replication #9
attr resultdir results
attr runnumber 9
attr seedset 9
config *.satellite[0].NoradModule.raan 185
config *.stats_altitude 670
config *.stats_raan 185
config image-path ../../images:../../../../samples/inet4.5_2/images
config network Florasat.Test_Individual.Florasat_Individual_Sats
config rng-class cMersenneTwister
config *.**.result-recording-modes -
config **.result-recording-modes -
config **.statistic-recording true
config **.scalar-recording true
config **.vector-recording true
config **.vector-record-eventnumbers true
config repeat 10
config seed-0-mt 92115
config sim-time-limit 749s
config simtime-resolution -11
config **.stats_altitude 670
config **.stats_raan 185
config *.radioMedium.backgroundNoise.power -110dBm
config *.radioMedium.mediumLimitCache.centerFrequency 868MHz
config *.radioMedium.mediumLimitCache.maxTransmissionDuration 4s
config *.radioMedium.mediumLimitCache.minInterferenceTime 0s
config **.numSatellites 1
config *.satellite[*].mobilityType "\"Sat_Mob_SatelliteMobility_Standalone\""
config *.satellite[*].noradModuleType "\"Sat_Mob_NoradA\""
config **.satellite[*].**.initFromDisplayString false
config *.satellite[*].mobility.faceForward true
config *.satellite[*].mobility.updateInterval 20s
config *.satellite[*].NoradModule.satName "\"FLoRaSat\""
config *.satellite[*].NoradModule.satIndex -1
config *.satellite[*].NoradModule.baseYear 20
config *.satellite[*].NoradModule.baseDay 1.5
config *.satellite[*].NoradModule.planes 1
config *.satellite[*].NoradModule.satPerPlane 1
config *.satellite[*].NoradModule.eccentricity 0.000001
config *.satellite[*].NoradModule.inclination 98
config *.satellite[*].NoradModule.altitude 670
config *.satellite[0].NoradModule.raan 185
config *.satellite[0].NoradModule.meanAnomaly 195
config *.satellite[*].phyDSL.radio.receiver.enableCollisionOverlap true
config *.satellite[*].phyDSL.radio.receiver.minCollisionOverlap 0s
config *.satellite[*].phyDSL.radio.antenna.typename ConstantGainAntenna
config *.satellite[*].phyDSL.radio.antenna.mobilityModule "\"^.^.^.mobility\""
config *.satellite[*].phyISL.radio.antenna.mobilityModule "\"^.^.^.mobility\""
config *.satellite[*].phyGSL.radio.antenna.mobilityModule "\"^.^.^.mobility\""
config *.satellite[*].phyDSL.radio.antenna.gain 12dB
config *.satellite[*].net.routingType "\"Null_Routing\""
config *.terminal[*].net.routingType "\"Ter_Null_Routing\""
config *.**.numGroundLinks 40
config *.satellite[*].**.interfaceTableModule "\"\""
config **.radioMedium.typename LoRaMedium
config **.radioMedium.analogModel.typename LoRaAnalogModel
config **.intraPlaneIslDisabled false
config **.interPlaneIslDisabled false
config **.numTerminals 30
config *.terminal[*].phy.radio.antenna.mobilityModule "\"^.^.^.mob\""
config *.terminal[*].dlk.mac.interfaceTableModule "\"\""
config *.terminal[*].dlk.energySourceModule "\"\""
config *.terminal[*].dlk.mac.LoRaTP "intuniform(12, 14)"
config *.terminal[*].dlk.mac.LoRaSF "intuniform(10, 12)"
config *.terminal[*].dlk.mac.useMLBox true
config *.terminal[*].dlk.mac.mlBox.modelPath "\"/home/ylnner/Documents/omnet++/omnetpp-6.3.0/projects/florasat_v4_ult_routing/simulations/Test_Individual/mlmodels/bilstm_scripted.pt\""
config **.numberOfPacketsToSend 0
config **.timeToFirstPacket 1s
config **.timeToNextPacket 50s
config *.terminal[0].mob.radius 0.0
config *.terminal[0].mob.centerLatitude 54.978
config *.terminal[0].mob.centerLongitude -1.617
config *.terminal[1].mob.radius 0.0
config *.terminal[1].mob.centerLatitude 52.630
config *.terminal[1].mob.centerLongitude -1.139
config *.terminal[2].mob.radius 0.0
config *.terminal[2].mob.centerLatitude 52.612
config *.terminal[2].mob.centerLongitude -6.295
config *.terminal[3].mob.radius 0.0
config *.terminal[3].mob.centerLatitude 47.243
config *.terminal[3].mob.centerLongitude 6.024
config *.terminal[4].mob.radius 0.0
config *.terminal[4].mob.centerLatitude 43.610
config *.terminal[4].mob.centerLongitude 3.876
config *.terminal[5].mob.radius 0.0
config *.terminal[5].mob.centerLatitude 49.443
config *.terminal[5].mob.centerLongitude 1.099
config *.terminal[6].mob.radius 0.0
config *.terminal[6].mob.centerLatitude 37.992
config *.terminal[6].mob.centerLongitude -1.130
config *.terminal[7].mob.radius 0.0
config *.terminal[7].mob.centerLatitude 40.965
config *.terminal[7].mob.centerLongitude -5.664
config *.terminal[8].mob.radius 0.0
config *.terminal[8].mob.centerLatitude 40.657
config *.terminal[8].mob.centerLongitude -7.914
config *.terminal[9].mob.radius 0.0
config *.terminal[9].mob.centerLatitude 51.340
config *.terminal[9].mob.centerLongitude 12.373
config *.terminal[10].mob.radius 0.0
config *.terminal[10].mob.centerLatitude 51.455
config *.terminal[10].mob.centerLongitude 7.011
config *.terminal[11].mob.radius 0.0
config *.terminal[11].mob.centerLatitude 49.452
config *.terminal[11].mob.centerLongitude 11.076
config *.terminal[12].mob.radius 0.0
config *.terminal[12].mob.centerLatitude 43.769
config *.terminal[12].mob.centerLongitude 11.255
config *.terminal[13].mob.radius 0.0
config *.terminal[13].mob.centerLatitude 41.117
config *.terminal[13].mob.centerLongitude 16.871
config *.terminal[14].mob.radius 0.0
config *.terminal[14].mob.centerLatitude 52.132
config *.terminal[14].mob.centerLongitude 5.291
config *.terminal[15].mob.radius 0.0
config *.terminal[15].mob.centerLatitude 50.411
config *.terminal[15].mob.centerLongitude 4.444
config *.terminal[16].mob.radius 0.0
config *.terminal[16].mob.centerLatitude 47.559
config *.terminal[16].mob.centerLongitude 7.588
config *.terminal[17].mob.radius 0.0
config *.terminal[17].mob.centerLatitude 55.403
config *.terminal[17].mob.centerLongitude 10.402
config *.terminal[18].mob.radius 0.0
config *.terminal[18].mob.centerLatitude 59.858
config *.terminal[18].mob.centerLongitude 17.638
config *.terminal[19].mob.radius 0.0
config *.terminal[19].mob.centerLatitude 60.451
config *.terminal[19].mob.centerLongitude 22.266
config *.terminal[20].mob.radius 0.0
config *.terminal[20].mob.centerLatitude 56.325
config *.terminal[20].mob.centerLongitude 22.349
config *.terminal[21].mob.radius 0.0
config *.terminal[21].mob.centerLatitude 49.883
config *.terminal[21].mob.centerLongitude 18.568
config *.terminal[22].mob.radius 0.0
config *.terminal[22].mob.centerLatitude 47.531
config *.terminal[22].mob.centerLongitude 21.627
config *.terminal[23].mob.radius 0.0
config *.terminal[23].mob.centerLatitude 44.179
config *.terminal[23].mob.centerLongitude 28.649
config *.terminal[24].mob.radius 0.0
config *.terminal[24].mob.centerLatitude 45.327
config *.terminal[24].mob.centerLongitude 14.442
config *.terminal[25].mob.radius 0.0
config *.terminal[25].mob.centerLatitude 40.694
config *.terminal[25].mob.centerLongitude 30.400
config *.terminal[26].mob.radius 0.0
config *.terminal[26].mob.centerLatitude 37.066
config *.terminal[26].mob.centerLongitude 37.383
config *.terminal[27].mob.radius 0.0
config *.terminal[27].mob.centerLatitude 64.836
config *.terminal[27].mob.centerLongitude -23.708
config *.terminal[28].mob.radius 0.0
config *.terminal[28].mob.centerLatitude 28.099
config *.terminal[28].mob.centerLongitude -17.113
config *.terminal[29].mob.radius 0.0
config *.terminal[29].mob.centerLatitude 34.921
config *.terminal[29].mob.centerLongitude 33.623
config **.numStations 3
config **.numStations 3
config *.station[0].mobility.latitude 55.752
config *.station[0].mobility.longitude 37.616
config *.station[0].cityName "\"Moscow\""
config *.station[0].groundStationId 7
config *.station[0].routerAddr "\"10.0.0.29\""
config *.station[0].serving "\"10.0.0.29\""
config *.station[1].mobility.latitude 28.652
config *.station[1].mobility.longitude 77.231
config *.station[1].cityName "\"Delhi\""
config *.station[1].groundStationId 11
config *.station[1].routerAddr "\"10.0.0.45\""
config *.station[1].serving "\"10.0.0.45\""
config *.station[2].mobility.latitude 25.35
config *.station[2].mobility.longitude 51.24
config *.station[2].cityName "\"Katar\""
config *.station[2].groundStationId 19
config *.station[2].routerAddr "\"10.0.0.77\""
config *.station[2].serving "\"10.0.0.77\""
config *.visualizer.canvasVisualizer.mediumVisualizer.typename ""
config *.visualizer.*.radioVisualizer.displayAntennaLobes true
config *.visualizer.*.dataLinkVisualizer.displayLinks true
config *.visualizer.*.mobilityVisualizer.displayMovementTrails true
config *.visualizer.*.mobilityVisualizer.movementTrailLineWidth 1
config *.visualizer.*.mobilityVisualizer.trailLength 3000
config **.ttxStart_max 30s
config **.ttxIdle_min 10s
config **.ttxIdle_max 25s
config **.Ntw 2
config **.Ntx 45
config **.ttwDuration 550s

vector 0 Florasat_Individual_Sats.satellite[0].dlkDSL.mac "Satellite Position when Repetition Received" ETV
vector 1 Florasat_Individual_Sats.satellite[0].dlkDSL.mac "Repetition Position for Node 58 at Satellite" ETV
vector 2 Florasat_Individual_Sats.satellite[0].dlkDSL.mac "All Nodes Repetition Generation Delay at Satellite" ETV
vector 3 Florasat_Individual_Sats.satellite[0].dlkDSL.mac "Repetition Generation Delay for Node 58 at Satellite" ETV
vector 4 Florasat_Individual_Sats.satellite[0].dlkDSL.mac "All Nodes Message Generation Delay at Satellite" ETV
vector 5 Florasat_Individual_Sats.satellite[0].dlkDSL.mac "Message Generation Delay for Node 58 at Satellite" ETV
vector 6 Florasat_Individual_Sats.satellite[0].net.packetHandler "packets received" ETV
vector 7 Florasat_Individual_Sats.satellite[0].net.packetHandler "dropped unroutable" ETV
vector 8 Florasat_Individual_Sats.satellite[0].net.packetHandler "packets dropped" ETV
vector 9 Florasat_Individual_Sats.satellite[0].dlkDSL.mac "Repetition Position for Node 358 at Satellite" ETV
vector 10 Florasat_Individual_Sats.satellite[0].dlkDSL.mac "Repetition Generation Delay for Node 358 at Satellite" ETV
vector 11 Florasat_Individual_Sats.satellite[0].dlkDSL.mac "Message Generation Delay for Node 358 at Satellite" ETV
vector 12 Florasat_Individual_Sats.satellite[0].dlkDSL.mac "Repetition Position for Node 463 at Satellite" ETV
vector 13 Florasat_Individual_Sats.satellite[0].dlkDSL.mac "Repetition Generation Delay for Node 463 at Satellite" ETV
vector 14 Florasat_Individual_Sats.satellite[0].dlkDSL.mac "Message Generation Delay for Node 463 at Satellite" ETV
vector 15 Florasat_Individual_Sats.satellite[0].dlkDSL.mac "Repetition Position for Node 328 at Satellite" ETV
vector 16 Florasat_Individual_Sats.satellite[0].dlkDSL.mac "Repetition Generation Delay for Node 328 at Satellite" ETV
vector 17 Florasat_Individual_Sats.satellite[0].dlkDSL.mac "Message Generation Delay for Node 328 at Satellite" ETV
vector 18 Florasat_Individual_Sats.satellite[0].dlkDSL.mac "Repetition Position for Node 418 at Satellite" ETV
vector 19 Florasat_Individual_Sats.satellite[0].dlkDSL.mac "Repetition Generation Delay for Node 418 at Satellite" ETV
vector 20 Florasat_Individual_Sats.satellite[0].dlkDSL.mac "Message Generation Delay for Node 418 at Satellite" ETV
vector 21 Florasat_Individual_Sats.satellite[0].dlkDSL.mac "Repetition Position for Node 343 at Satellite" ETV
vector 22 Florasat_Individual_Sats.satellite[0].dlkDSL.mac "Repetition Generation Delay for Node 343 at Satellite" ETV
vector 23 Florasat_Individual_Sats.satellite[0].dlkDSL.mac "Message Generation Delay for Node 343 at Satellite" ETV
vector 24 Florasat_Individual_Sats.satellite[0].dlkDSL.mac "Repetition Position for Node 73 at Satellite" ETV
vector 25 Florasat_Individual_Sats.satellite[0].dlkDSL.mac "Repetition Generation Delay for Node 73 at Satellite" ETV
vector 26 Florasat_Individual_Sats.satellite[0].dlkDSL.mac "Message Generation Delay for Node 73 at Satellite" ETV
vector 27 Florasat_Individual_Sats.satellite[0].dlkDSL.mac "Repetition Position for Node 133 at Satellite" ETV
vector 28 Florasat_Individual_Sats.satellite[0].dlkDSL.mac "Repetition Generation Delay for Node 133 at Satellite" ETV
vector 29 Florasat_Individual_Sats.satellite[0].dlkDSL.mac "Message Generation Delay for Node 133 at Satellite" ETV
vector 30 Florasat_Individual_Sats.satellite[0].dlkDSL.mac "Repetition Position for Node 298 at Satellite" ETV
vector 31 Florasat_Individual_Sats.satellite[0].dlkDSL.mac "Repetition Generation Delay for Node 298 at Satellite" ETV
vector 32 Florasat_Individual_Sats.satellite[0].dlkDSL.mac "Message Generation Delay for Node 298 at Satellite" ETV
vector 33 Florasat_Individual_Sats.satellite[0].dlkDSL.mac "Repetition Position for Node 193 at Satellite" ETV
vector 34 Florasat_Individual_Sats.satellite[0].dlkDSL.mac "Repetition Generation Delay for Node 193 at Satellite" ETV
vector 35 Florasat_Individual_Sats.satellite[0].dlkDSL.mac "Message Generation Delay for Node 193 at Satellite" ETV
vector 36 Florasat_Individual_Sats.satellite[0].dlkDSL.mac "Repetition Position for Node 313 at Satellite" ETV
vector 37 Florasat_Individual_Sats.satellite[0].dlkDSL.mac "Repetition Generation Delay for Node 313 at Satellite" ETV
vector 38 Florasat_Individual_Sats.satellite[0].dlkDSL.mac "Message Generation Delay for Node 313 at Satellite" ETV
vector 39 Florasat_Individual_Sats.satellite[0].dlkDSL.mac "Repetition Position for Node 223 at Satellite" ETV
vector 40 Florasat_Individual_Sats.satellite[0].dlkDSL.mac "Repetition Generation Delay for Node 223 at Satellite" ETV
vector 41 Florasat_Individual_Sats.satellite[0].dlkDSL.mac "Message Generation Delay for Node 223 at Satellite" ETV
vector 42 Florasat_Individual_Sats.satellite[0].dlkDSL.mac "Repetition Position for Node 283 at Satellite" ETV
vector 43 Florasat_Individual_Sats.satellite[0].dlkDSL.mac "Repetition Generation Delay for Node 283 at Satellite" ETV
vector 44 Florasat_Individual_Sats.satellite[0].dlkDSL.mac "Message Generation Delay for Node 283 at Satellite" ETV
vector 45 Florasat_Individual_Sats.satellite[0].dlkDSL.mac "Repetition Position for Node 268 at Satellite" ETV
vector 46 Florasat_Individual_Sats.satellite[0].dlkDSL.mac "Repetition Generation Delay for Node 268 at Satellite" ETV
vector 47 Florasat_Individual_Sats.satellite[0].dlkDSL.mac "Message Generation Delay for Node 268 at Satellite" ETV
vector 48 Florasat_Individual_Sats.satellite[0].dlkDSL.mac "Repetition Position for Node 253 at Satellite" ETV
vector 49 Florasat_Individual_Sats.satellite[0].dlkDSL.mac "Repetition Generation Delay for Node 253 at Satellite" ETV
vector 50 Florasat_Individual_Sats.satellite[0].dlkDSL.mac "Message Generation Delay for Node 253 at Satellite" ETV
vector 51 Florasat_Individual_Sats.satellite[0].dlkDSL.mac "Repetition Position for Node 208 at Satellite" ETV
vector 52 Florasat_Individual_Sats.satellite[0].dlkDSL.mac "Repetition Generation Delay for Node 208 at Satellite" ETV
vector 53 Florasat_Individual_Sats.satellite[0].dlkDSL.mac "Message Generation Delay for Node 208 at Satellite" ETV
vector 54 Florasat_Individual_Sats.satellite[0].dlkDSL.mac "Repetition Position for Node 388 at Satellite" ETV
vector 55 Florasat_Individual_Sats.satellite[0].dlkDSL.mac "Repetition Generation Delay for Node 388 at Satellite" ETV
vector 56 Florasat_Individual_Sats.satellite[0].dlkDSL.mac "Message Generation Delay for Node 388 at Satellite" ETV
vector 57 Florasat_Individual_Sats.satellite[0].dlkDSL.mac "Repetition Position for Node 403 at Satellite" ETV
vector 58 Florasat_Individual_Sats.satellite[0].dlkDSL.mac "Repetition Generation Delay for Node 403 at Satellite" ETV
vector 59 Florasat_Individual_Sats.satellite[0].dlkDSL.mac "Message Generation Delay for Node 403 at Satellite" ETV
vector 60 Florasat_Individual_Sats.satellite[0].dlkDSL.mac "Repetition Position for Node 178 at Satellite" ETV
vector 61 Florasat_Individual_Sats.satellite[0].dlkDSL.mac "Repetition Generation Delay for Node 178 at Satellite" ETV
vector 62 Florasat_Individual_Sats.satellite[0].dlkDSL.mac "Message Generation Delay for Node 178 at Satellite" ETV
vector 63 Florasat_Individual_Sats.satellite[0].dlkDSL.mac "Repetition Position for Node 238 at Satellite" ETV
vector 64 Florasat_Individual_Sats.satellite[0].dlkDSL.mac "Repetition Generation Delay for Node 238 at Satellite" ETV
vector 65 Florasat_Individual_Sats.satellite[0].dlkDSL.mac "Message Generation Delay for Node 238 at Satellite" ETV
vector 66 Florasat_Individual_Sats.satellite[0].dlkDSL.mac "Repetition Position for Node 448 at Satellite" ETV
vector 67 Florasat_Individual_Sats.satellite[0].dlkDSL.mac "Repetition Generation Delay for Node 448 at Satellite" ETV
vector 68 Florasat_Individual_Sats.satellite[0].dlkDSL.mac "Message Generation Delay for Node 448 at Satellite" ETV
vector 69 Florasat_Individual_Sats.satellite[0].dlkDSL.mac "Repetition Position for Node 88 at Satellite" ETV
vector 70 Florasat_Individual_Sats.satellite[0].dlkDSL.mac "Repetition Generation Delay for Node 88 at Satellite" ETV
vector 71 Florasat_Individual_Sats.satellite[0].dlkDSL.mac "Message Generation Delay for Node 88 at Satellite" ETV
vector 72 Florasat_Individual_Sats.satellite[0].dlkDSL.mac "Repetition Position for Node 373 at Satellite" ETV
vector 73 Florasat_Individual_Sats.satellite[0].dlkDSL.mac "Repetition Generation Delay for Node 373 at Satellite" ETV
vector 74 Florasat_Individual_Sats.satellite[0].dlkDSL.mac "Message Generation Delay for Node 373 at Satellite" ETV
vector 75 Florasat_Individual_Sats.satellite[0].dlkDSL.mac "Repetition Position for Node 118 at Satellite" ETV
vector 76 Florasat_Individual_Sats.satellite[0].dlkDSL.mac "Repetition Generation Delay for Node 118 at Satellite" ETV
vector 77 Florasat_Individual_Sats.satellite[0].dlkDSL.mac "Message Generation Delay for Node 118 at Satellite" ETV
vector 78 Florasat_Individual_Sats.satellite[0].dlkDSL.mac "Repetition Position for Node 493 at Satellite" ETV
vector 79 Florasat_Individual_Sats.satellite[0].dlkDSL.mac "Repetition Generation Delay for Node 493 at Satellite" ETV
vector 80 Florasat_Individual_Sats.satellite[0].dlkDSL.mac "Message Generation Delay for Node 493 at Satellite" ETV
vector 81 Florasat_Individual_Sats.satellite[0].dlkDSL.mac "Repetition Position for Node 148 at Satellite" ETV
vector 82 Florasat_Individual_Sats.satellite[0].dlkDSL.mac "Repetition Generation Delay for Node 148 at Satellite" ETV
vector 83 Florasat_Individual_Sats.satellite[0].dlkDSL.mac "Message Generation Delay for Node 148 at Satellite" ETV
vector 84 Florasat_Individual_Sats.satellite[0].dlkDSL.mac "Repetition Position for Node 433 at Satellite" ETV
vector 85 Florasat_Individual_Sats.satellite[0].dlkDSL.mac "Repetition Generation Delay for Node 433 at Satellite" ETV
vector 86 Florasat_Individual_Sats.satellite[0].dlkDSL.mac "Message Generation Delay for Node 433 at Satellite" ETV
vector 87 Florasat_Individual_Sats.satellite[0].dlkDSL.mac "Repetition Position for Node 163 at Satellite" ETV
vector 88 Florasat_Individual_Sats.satellite[0].dlkDSL.mac "Repetition Generation Delay for Node 163 at Satellite" ETV
vector 89 Florasat_Individual_Sats.satellite[0].dlkDSL.mac "Message Generation Delay for Node 163 at Satellite" ETV
vector 90 Florasat_Individual_Sats.satellite[0].dlkDSL.mac "Repetition Position for Node 103 at Satellite" ETV
vector 91 Florasat_Individual_Sats.satellite[0].dlkDSL.mac "Repetition Generation Delay for Node 103 at Satellite" ETV
vector 92 Florasat_Individual_Sats.satellite[0].dlkDSL.mac "Message Generation Delay for Node 103 at Satellite" ETV
0	19667 5795 159 6314 8.6323445428 744.6138296259 217 180 180 39060 7030800
1	25462 128 159 5203 8.6323445428 580.04633957035 5 180 180 900 162000
2	25590 8352 159 6314 8.6323445428 744.6138296259 217 7.6323445428 743.6138296259 76366.165791495 35517647.970459
3	33942 183 159 5203 8.6323445428 580.04633957035 5 7.6323445428 579.04633957035 1459.9405026321 692509.19517734
4	34125 1092 159 3479 8.6323445428 300.73501859617 29 7.6323445428 299.73501859617 4236.5183999679 849739.04290178
5	35217 32 159 159 8.6323445428 8.6323445428 1 7.6323445428 7.6323445428 7.6323445428 58.252683220009
6	35249 5687 160 6315 8.6323445428 744.6138296259 217 1 217 23653 3429685
7	40936 5687 160 6315 8.6323445428 744.6138296259 217 1 217 23653 3429685
8	46623 5687 160 6315 8.6323445428 744.6138296259 217 1 217 23653 3429685
9	52310 292 199 4759 16.28533629295 506.49170743826 11 180 180 1980 356400
10	52602 432 199 4759 16.28533629295 506.49170743826 11 15.28533629295 505.49170743826 2239.8261479446 632004.20638236
11	53034 37 199 199 16.28533629295 16.28533629295 1 15.28533629295 15.28533629295 15.28533629295 233.64150558857
12	53071 272 233 4639 22.3598713938 500.97807448921 10 180 180 1800 324000
13	53343 387 233 4639 22.3598713938 500.97807448921 10 21.3598713938 499.97807448921 2571.0533201163 1029601.2006602
14	53730 35 233 233 22.3598713938 22.3598713938 1 21.3598713938 21.3598713938 21.3598713938 456.24410595968
15	53765 330 343 4196 30.00151245034 408.31688489294 12 180 180 2160 388800
16	54095 470 343 4196 30.00151245034 408.31688489294 12 29.00151245034 407.31688489294 1998.5691942088 431633.53216705
17	54565 37 343 343 30.00151245034 30.00151245034 1 29.00151245034 29.00151245034 29.00151245034 841.08772440723
18	54602 110 368 5764 33.25909624671 660.09510398009 4 180 180 720 129600
19	54712 157 368 5764 33.25909624671 660.09510398009 4 32.25909624671 659.09510398009 1313.0681416503 644869.62270089
20	54869 37 368 368 33.25909624671 33.25909624671 1 32.25909624671 32.25909624671 32.25909624671 1040.6492906545
21	54906 409 403 4187 37.26692231781 407.85163217285 15 180 180 2700 486000
22	55315 582 403 4187 37.26692231781 407.85163217285 15 36.26692231781 406.85163217285 2493.2865519143 567215.14330423
23	55897 37 403 403 37.26692231781 37.26692231781 1 36.26692231781 36.26692231781 36.26692231781 1315.2896544061
24	55934 108 676 4497 55.87655633552 464.68861294775 4 180 180 720 129600
25	56042 153 676 4497 55.87655633552 464.68861294775 4 54.87655633552 463.68861294775 931.11775929287 306868.09562344
26	56195 37 676 676 55.87655633552 55.87655633552 1 54.87655633552 54.87655633552 54.87655633552 3011.4364352455
27	56232 164 816 5479 70.28254248997 621.47708308048 6 180 180 1080 194400
28	56396 233 816 5479 70.28254248997 621.47708308048 6 69.28254248997 620.47708308048 2230.1238547658 1125381.3973892
29	56629 37 816 816 70.28254248997 70.28254248997 1 69.28254248997 69.28254248997 69.28254248997 4800.0706938745
30	56666 305 968 6240 86.13645679377 731.0296020232 11 180 180 1980 356400
31	56971 435 968 6240 86.13645679377 731.0296020232 11 85.13645679377 730.0296020232 4581.4206614758 2349705.136531
32	57406 37 968 968 86.13645679377 86.13645679377 1 85.13645679377 85.13645679377 85.13645679377 7248.2162753975
33	57443 168 1223 4625 104.60030521493 498.07422200443 6 180 180 1080 194400
34	57611 240 1223 4625 104.60030521493 498.07422200443 6 103.60030521493 497.07422200443 1569.8563548322 529870.57850634
35	57851 40 1223 1223 104.60030521493 104.60030521493 1 103.60030521493 103.60030521493 103.60030521493 10733.023240627
36	57891 306 1234 3967 105.29325633187 380.4315926518 11 180 180 1980 356400
37	58197 436 1234 3967 105.29325633187 380.4315926518 11 104.29325633187 379.4315926518 2859.7443923752 803196.69174338
38	58633 40 1234 1234 105.29325633187 105.29325633187 1 104.29325633187 104.29325633187 104.29325633187 10877.083316305
39	58673 111 1387 3665 118.98447982598 322.43735342033 4 180 180 720 129600
40	58784 158 1387 3665 118.98447982598 322.43735342033 4 117.98447982598 321.43735342033 967.06962591329 259811.57976133
41	58942 40 1387 1387 118.98447982598 118.98447982598 1 117.98447982598 117.98447982598 117.98447982598 13920.337479807
42	58982 278 1624 6253 141.87616750891 732.33208436114 10 180 180 1800 324000
43	59260 396 1624 6253 141.87616750891 732.33208436114 10 140.87616750891 731.33208436114 3696.5669054366 1815047.6078002
44	59656 40 1624 1624 141.87616750891 141.87616750891 1 140.87616750891 140.87616750891 140.87616750891 19846.094571998
45	59696 252 1648 5905 144.88691284534 689.69421205906 9 180 180 1620 291600
46	59948 360 1648 5905 144.88691284534 689.69421205906 9 143.88691284534 688.69421205906 3987.5397952212 2005269.4013736
47	60308 40 1648 1648 144.88691284534 144.88691284534 1 143.88691284534 143.88691284534 143.88691284534 20703.443688162
48	60348 224 1695 5623 149.39909063805 648.84439414659 8 180 180 1440 259200
49	60572 320 1695 5623 149.39909063805 648.84439414659 8 148.39909063805 647.84439414659 3473.0768039305 1767253.4326291
50	60892 40 1695 1695 149.39909063805 149.39909063805 1 148.39909063805 148.39909063805 148.39909063805 22022.2901022
51	60932 140 1840 3613 154.29452181192 308.49222362137 5 180 180 900 162000
52	61072 200 1840 3613 154.29452181192 308.49222362137 5 153.29452181192 307.49222362137 1173.5658971874 288351.09728495
53	61272 40 1840 1840 154.29452181192 154.29452181192 1 153.29452181192 153.29452181192 153.29452181192 23499.210417545
54	61312 140 1856 5538 155.36340432068 629.98871177844 5 180 180 900 162000
55	61452 200 1856 5538 155.36340432068 629.98871177844 5 154.36340432068 628.98871177844 1899.618018198 848635.89424633
56	61652 40 1856 1856 155.36340432068 155.36340432068 1 154.36340432068 154.36340432068 154.36340432068 23828.06059347
57	61692 223 1931 3857 160.6432714662 354.09480815051 8 180 180 1440 259200
58	61915 318 1931 3857 160.6432714662 354.09480815051 8 159.6432714662 353.09480815051 2002.6787714265 529152.12554288
59	62233 38 1931 1931 160.6432714662 160.6432714662 1 159.6432714662 159.6432714662 159.6432714662 25485.974124431
60	62271 447 2213 5899 190.43296151506 689.33752852319 16 180 180 2880 518400
61	62718 638 2213 5899 190.43296151506 689.33752852319 16 189.43296151506 688.33752852319 7894.1427847464 4308460.7752214
62	63356 40 2213 2213 190.43296151506 190.43296151506 1 189.43296151506 189.43296151506 189.43296151506 35884.846908366
63	63396 195 2262 6181 194.98180860763 720.06273139145 7 180 180 1260 226800
64	63591 278 2262 6181 194.98180860763 720.06273139145 7 193.98180860763 719.06273139145 2442.3080500521 1072083.2731609
65	63869 40 2262 2262 194.98180860763 194.98180860763 1 193.98180860763 193.98180860763 193.98180860763 37628.942070687
66	63909 84 2285 4738 197.12254588783 502.04948852594 3 180 180 540 97200
67	63993 120 2285 4738 197.12254588783 502.04948852594 3 196.12254588783 501.04948852594 1114.7785123436 463909.8133666
68	64113 40 2285 2285 197.12254588783 197.12254588783 1 196.12254588783 196.12254588783 196.12254588783 38464.053005524
69	64153 139 2550 5425 212.25369412782 610.33470170786 5 180 180 900 162000
70	64292 198 2550 5425 212.25369412782 610.33470170786 5 211.25369412782 609.33470170786 2084.7953243195 990301.10591064
71	64490 40 2550 2550 212.25369412782 212.25369412782 1 211.25369412782 211.25369412782 211.25369412782 44628.123282651
72	64530 55 2744 4772 230.0411026655 508.07591860979 2 180 180 360 64800
73	64585 78 2744 4772 230.0411026655 508.07591860979 2 229.0411026655 507.07591860979 736.11702127529 309585.81394419
74	64663 38 2744 2744 230.0411026655 230.0411026655 1 229.0411026655 229.0411026655 229.0411026655 52459.826710228
75	64701 252 2909 6304 245.49761616268 743.82568443072 9 180 180 1620 291600
76	64953 360 2909 6304 245.49761616268 743.82568443072 9 244.49761616268 742.82568443072 4226.4781855776 2376233.8995062
77	65313 40 2909 2909 245.49761616268 245.49761616268 1 244.49761616268 244.49761616268 244.49761616268 59779.084309233
78	65353 84 2913 4550 245.90103575009 479.21123733374 3 180 180 540 97200
79	65437 120 2913 4550 245.90103575009 479.21123733374 3 244.90103575009 478.21123733374 1070.2857327891 409191.91594743
80	65557 40 2913 2913 245.90103575009 245.90103575009 1 244.90103575009 244.90103575009 244.90103575009 59976.517311467
81	65597 223 3312 6245 277.21623708125 731.11119974269 8 180 180 1440 259200
82	65820 318 3312 6245 277.21623708125 731.11119974269 8 276.21623708125 730.11119974269 4593.6556747952 2808402.0935798
83	66138 40 3312 3312 277.21623708125 277.21623708125 1 276.21623708125 276.21623708125 276.21623708125 76295.409627325
84	66178 83 3325 5177 278.3711283863 576.93006604787 3 180 180 540 97200
85	66261 118 3325 5177 278.3711283863 576.93006604787 3 277.3711283863 575.93006604787 1261.6774125726 575401.31938124
86	66379 38 3325 3325 278.3711283863 278.3711283863 1 277.3711283863 277.3711283863 277.3711283863 76934.742862289
87	66417 279 3460 6314 297.52320236005 744.6138296259 10 180 180 1800 324000
88	66696 398 3460 6314 297.52320236005 744.6138296259 10 296.52320236005 743.6138296259 5625.3974134197 3339582.0314959
89	67094 40 3460 3460 297.52320236005 297.52320236005 1 296.52320236005 296.52320236005 296.52320236005 87926.009537859
90	67134 195 3479 6212 300.73501859617 726.26913518589 7 180 180 1260 226800
91	67329 278 3479 6212 300.73501859617 726.26913518589 7 299.73501859617 725.26913518589 3868.4069810821 2238119.9901209
92	67607 40 3479 3479 300.73501859617 300.73501859617 1 299.73501859617 299.73501859617 299.73501859617 89841.081372846

