file 808069 1772723131                                          
version 3
run General-0-20260305-16:05:17-393723
attr configname General
attr datetime 20260305-16:05:17
attr datetimef 20260305-160517
attr experiment General
attr inifile Test_Global.ini
attr iterationvars "$0=23542, $1=1.5"
attr iterationvarsd 23542/1.5
attr iterationvarsf 23542,1.5-
attr measurement "$0=23542, $1=1.5"
attr network Florasat.Florasat
attr processid 393723
attr repetition 0
attr replication #0
attr resultdir results
attr runnumber 0
attr seedset 0
config image-path ../../images:../../../../samples/inet4.5/images
config network Florasat.Florasat
config *.visualizer.osgVisualizer.typename ""
config *.radioMedium.mediumLimitCache.maxTransmissionDuration 20s
config rng-class cMersenneTwister
config *.**.result-recording-modes -
config **.result-recording-modes -
config **.statistic-recording true
config **.scalar-recording true
config **.vector-recording true
config **.vector-record-eventnumbers true
config repeat 2
config seed-0-mt 23542
config sim-time-limit 5999s
config simtime-resolution -11
config *.topologyControl.minimumElevation 5.0
config *.topologyControl.islDatarate 50000000
config *.topologyControl.groundlinkDatarate 50000000
config *.numSatellites 66
config *.topologyControl.walkerType "\"STAR\""
config *.topologyControl.allowUnevenPlanes false
config *.constellationCreator.enabled true
config *.constellationCreator.raanSpread 180
config *.constellationCreator.inclination 86.4
config *.constellationCreator.altitude 781
config *.constellationCreator.baseYear 20
config *.constellationCreator.baseDay 1.5
config *.constellationCreator.epochYear 20
config *.constellationCreator.epochDay 1.5
config *.**.interPlaneSpacing 5
config *.**.planeCount 6
config *.packetRecorder.constName "\"Iridium\""
config *.satellite[*].noradModuleType "\"Sat_Mob_NoradA\""
config **.satellite[*].**.initFromDisplayString false
config *.satellite[*].mobility.faceForward false
config *.satellite[*].mobility.updateInterval 999999s
config *.satellite[*].NoradModule.satName "\"FLoRaSat\""
config *.satellite[*].NoradModule.satIndex -1
config *.satellite[*].NoradModule.baseYear 20
config *.satellite[*].NoradModule.baseDay 1.5
config *.satellite[*].phyDSL.radio.antenna.typename ConstantGainAntenna
config *.satellite[*].phyDSL.radio.antenna.mobilityModule "\"^.^.^.mobility\""
config *.satellite[*].phyISL.radio.antenna.mobilityModule "\"^.^.^.mobility\""
config *.satellite[*].phyGSL.radio.antenna.mobilityModule "\"^.^.^.mobility\""
config *.satellite[*].phyDSL.radio.antenna.gain 12dB
config *.**.numGroundLinks 60
config *.topologyControl.updateInterval 10000ms
config *.topologyControl.timeSliceLength 5000ms
config *.satellite[*].**.interfaceTableModule "\"\""
config *.satellite[*].net.routingType "\"Sat_Net_DDRARouting\""
config *.terminal[*].net.routingType "\"Ter_Net_DDRARouting\""
config **.radioMedium.typename LoRaMedium
config **.radioMedium.analogModel.typename LoRaAnalogModel
config **.intraPlaneIslDisabled false
config **.interPlaneIslDisabled false
config **.numTerminals 30
config *.terminal[*].phy.radio.antenna.mobilityModule "\"^.^.^.mob\""
config *.terminal[*].phy.radio "\"Ter_Phy_LoRaRadio\""
config *.terminal[*].dlk.mac.interfaceTableModule "\"\""
config *.terminal[*].dlk.energySourceModule "\"\""
config **.numberOfPacketsToSend 0
config **.timeToFirstPacket 1s
config **.timeToNextPacket 50s
config *.terminal[0].mob.radius 0.0
config *.terminal[0].mob.centerLatitude 40.712
config *.terminal[0].mob.centerLongitude -74.006
config *.terminal[1].mob.radius 0.0
config *.terminal[1].mob.centerLatitude 34.052
config *.terminal[1].mob.centerLongitude -118.244
config *.terminal[2].mob.radius 0.0
config *.terminal[2].mob.centerLatitude 43.651
config *.terminal[2].mob.centerLongitude -79.383
config *.terminal[3].mob.radius 0.0
config *.terminal[3].mob.centerLatitude 19.433
config *.terminal[3].mob.centerLongitude -99.133
config *.terminal[4].mob.radius 0.0
config *.terminal[4].mob.centerLatitude 4.711
config *.terminal[4].mob.centerLongitude -74.072
config *.terminal[5].mob.radius 0.0
config *.terminal[5].mob.centerLatitude -12.046
config *.terminal[5].mob.centerLongitude -77.042
config *.terminal[6].mob.radius 0.0
config *.terminal[6].mob.centerLatitude -34.603
config *.terminal[6].mob.centerLongitude -58.382
config *.terminal[7].mob.radius 0.0
config *.terminal[7].mob.centerLatitude -23.550
config *.terminal[7].mob.centerLongitude -46.634
config *.terminal[8].mob.radius 0.0
config *.terminal[8].mob.centerLatitude -33.448
config *.terminal[8].mob.centerLongitude -70.669
config *.terminal[9].mob.radius 0.0
config *.terminal[9].mob.centerLatitude -0.180
config *.terminal[9].mob.centerLongitude -78.468
config *.terminal[10].mob.radius 0.0
config *.terminal[10].mob.centerLatitude 10.500
config *.terminal[10].mob.centerLongitude -66.917
config *.terminal[11].mob.radius 0.0
config *.terminal[11].mob.centerLatitude 61.218
config *.terminal[11].mob.centerLongitude -149.900
config *.terminal[12].mob.radius 0.0
config *.terminal[12].mob.centerLatitude 51.507
config *.terminal[12].mob.centerLongitude -0.128
config *.terminal[13].mob.radius 0.0
config *.terminal[13].mob.centerLatitude 48.857
config *.terminal[13].mob.centerLongitude 2.352
config *.terminal[14].mob.radius 0.0
config *.terminal[14].mob.centerLatitude 52.520
config *.terminal[14].mob.centerLongitude 13.405
config *.terminal[15].mob.radius 0.0
config *.terminal[15].mob.centerLatitude 40.417
config *.terminal[15].mob.centerLongitude -3.704
config *.terminal[16].mob.radius 0.0
config *.terminal[16].mob.centerLatitude 41.902
config *.terminal[16].mob.centerLongitude 12.496
config *.terminal[17].mob.radius 0.0
config *.terminal[17].mob.centerLatitude 52.367
config *.terminal[17].mob.centerLongitude 4.904
config *.terminal[18].mob.radius 0.0
config *.terminal[18].mob.centerLatitude 59.329
config *.terminal[18].mob.centerLongitude 18.068
config *.terminal[19].mob.radius 0.0
config *.terminal[19].mob.centerLatitude 48.208
config *.terminal[19].mob.centerLongitude 16.373
config *.terminal[20].mob.radius 0.0
config *.terminal[20].mob.centerLatitude 59.913
config *.terminal[20].mob.centerLongitude 10.752
config *.terminal[21].mob.radius 0.0
config *.terminal[21].mob.centerLatitude 37.984
config *.terminal[21].mob.centerLongitude 23.728
config *.terminal[22].mob.radius 0.0
config *.terminal[22].mob.centerLatitude 30.044
config *.terminal[22].mob.centerLongitude 31.236
config *.terminal[23].mob.radius 0.0
config *.terminal[23].mob.centerLatitude -1.292
config *.terminal[23].mob.centerLongitude 36.822
config *.terminal[24].mob.radius 0.0
config *.terminal[24].mob.centerLatitude -33.925
config *.terminal[24].mob.centerLongitude 18.424
config *.terminal[25].mob.radius 0.0
config *.terminal[25].mob.centerLatitude 55.755
config *.terminal[25].mob.centerLongitude 37.617
config *.terminal[26].mob.radius 0.0
config *.terminal[26].mob.centerLatitude 39.904
config *.terminal[26].mob.centerLongitude 116.407
config *.terminal[27].mob.radius 0.0
config *.terminal[27].mob.centerLatitude 35.689
config *.terminal[27].mob.centerLongitude 139.692
config *.terminal[28].mob.radius 0.0
config *.terminal[28].mob.centerLatitude -33.868
config *.terminal[28].mob.centerLongitude 151.209
config *.terminal[29].mob.radius 0.0
config *.terminal[29].mob.centerLatitude -36.848
config *.terminal[29].mob.centerLongitude 174.763
config **.numStations 20
config **.numStations 20
config *.station[0].mobility.latitude 49.235
config *.station[0].mobility.longitude 6.982
config *.station[0].cityName "\"Saarbrücken\""
config *.station[0].groundStationId 0
config *.station[0].routerAddr "\"10.0.0.1\""
config *.station[0].serving "\"10.0.0.1\""
config *.station[1].mobility.latitude 39.908
config *.station[1].mobility.longitude 116.397
config *.station[1].cityName "\"Peking\""
config *.station[1].groundStationId 1
config *.station[1].routerAddr "\"10.0.0.5\""
config *.station[1].serving "\"10.0.0.5\""
config *.station[2].mobility.latitude 47.606
config *.station[2].mobility.longitude -122.332
config *.station[2].cityName "\"Seattle\""
config *.station[2].groundStationId 2
config *.station[2].routerAddr "\"10.0.0.9\""
config *.station[2].serving "\"10.0.0.9\""
config *.station[3].mobility.latitude -34.613
config *.station[3].mobility.longitude -58.377
config *.station[3].cityName "\"Buenos Aires\""
config *.station[3].groundStationId 3
config *.station[3].routerAddr "\"10.0.0.13\""
config *.station[3].serving "\"10.0.0.13\""
config *.station[4].mobility.latitude 30.063
config *.station[4].mobility.longitude 31.25
config *.station[4].cityName "\"Kairo\""
config *.station[4].groundStationId 4
config *.station[4].routerAddr "\"10.0.0.17\""
config *.station[4].serving "\"10.0.0.17\""
config *.station[5].mobility.latitude -33.867
config *.station[5].mobility.longitude 151.207
config *.station[5].cityName "\"Sydney\""
config *.station[5].groundStationId 5
config *.station[5].routerAddr "\"10.0.0.21\""
config *.station[5].serving "\"10.0.0.21\""
config *.station[6].mobility.latitude -33.926
config *.station[6].mobility.longitude 18.423
config *.station[6].cityName "\"Capetown\""
config *.station[6].groundStationId 6
config *.station[6].routerAddr "\"10.0.0.25\""
config *.station[6].serving "\"10.0.0.25\""
config *.station[7].mobility.latitude 55.752
config *.station[7].mobility.longitude 37.616
config *.station[7].cityName "\"Moscow\""
config *.station[7].groundStationId 7
config *.station[7].routerAddr "\"10.0.0.29\""
config *.station[7].serving "\"10.0.0.29\""
config *.station[8].mobility.latitude 40.416
config *.station[8].mobility.longitude -3.702
config *.station[8].cityName "\"Madrid\""
config *.station[8].groundStationId 8
config *.station[8].routerAddr "\"10.0.0.33\""
config *.station[8].serving "\"10.0.0.33\""
config *.station[9].mobility.latitude 35.69
config *.station[9].mobility.longitude 139.692
config *.station[9].cityName "\"Tokyo\""
config *.station[9].groundStationId 9
config *.station[9].routerAddr "\"10.0.0.37\""
config *.station[9].serving "\"10.0.0.37\""
config *.station[10].mobility.latitude 22.286
config *.station[10].mobility.longitude 114.158
config *.station[10].cityName "\"Hongkong\""
config *.station[10].groundStationId 10
config *.station[10].routerAddr "\"10.0.0.41\""
config *.station[10].serving "\"10.0.0.41\""
config *.station[11].mobility.latitude 28.652
config *.station[11].mobility.longitude 77.231
config *.station[11].cityName "\"Delhi\""
config *.station[11].groundStationId 11
config *.station[11].routerAddr "\"10.0.0.45\""
config *.station[11].serving "\"10.0.0.45\""
config *.station[12].mobility.latitude 38.895
config *.station[12].mobility.longitude -77.036
config *.station[12].cityName "\"Washington DC\""
config *.station[12].groundStationId 12
config *.station[12].routerAddr "\"10.0.0.49\""
config *.station[12].serving "\"10.0.0.49\""
config *.station[13].mobility.latitude 8.994
config *.station[13].mobility.longitude -79.52
config *.station[13].cityName "\"Panama City\""
config *.station[13].groundStationId 13
config *.station[13].routerAddr "\"10.0.0.53\""
config *.station[13].serving "\"10.0.0.53\""
config *.station[14].mobility.latitude 50.455
config *.station[14].mobility.longitude 30.524
config *.station[14].cityName "\"Kyiv\""
config *.station[14].groundStationId 14
config *.station[14].routerAddr "\"10.0.0.57\""
config *.station[14].serving "\"10.0.0.57\""
config *.station[15].mobility.latitude 12.65
config *.station[15].mobility.longitude -8
config *.station[15].cityName "\"Bamako\""
config *.station[15].groundStationId 15
config *.station[15].routerAddr "\"10.0.0.61\""
config *.station[15].serving "\"10.0.0.61\""
config *.station[16].mobility.latitude 32.783
config *.station[16].mobility.longitude -96.807
config *.station[16].cityName "\"Dallas\""
config *.station[16].groundStationId 16
config *.station[16].routerAddr "\"10.0.0.65\""
config *.station[16].serving "\"10.0.0.65\""
config *.station[17].mobility.latitude 1.36
config *.station[17].mobility.longitude 103
config *.station[17].cityName "\"Singapur\""
config *.station[17].groundStationId 17
config *.station[17].routerAddr "\"10.0.0.69\""
config *.station[17].serving "\"10.0.0.69\""
config *.station[18].mobility.latitude -22.15
config *.station[18].mobility.longitude -44.193
config *.station[18].cityName "\"Rio de Janeiro\""
config *.station[18].groundStationId 18
config *.station[18].routerAddr "\"10.0.0.73\""
config *.station[18].serving "\"10.0.0.73\""
config *.station[19].mobility.latitude 25.35
config *.station[19].mobility.longitude 51.24
config *.station[19].cityName "\"Katar\""
config *.station[19].groundStationId 19
config *.station[19].routerAddr "\"10.0.0.77\""
config *.station[19].serving "\"10.0.0.77\""
config *.visualizer.canvasVisualizer.mediumVisualizer.typename ""
config *.visualizer.*.radioVisualizer.displayAntennaLobes true
config *.visualizer.*.dataLinkVisualizer.displayLinks true
config *.visualizer.*.mobilityVisualizer.displayMovementTrails true
config *.visualizer.*.mobilityVisualizer.movementTrailLineWidth 1
config *.visualizer.*.mobilityVisualizer.trailLength 3000
config *.topologyControl.timeSliceLength 5000ms

vector 0 Florasat.satellite[32].dlkDSL.mac "Satellite Position when Repetition Received" ETV
vector 1 Florasat.satellite[32].dlkDSL.mac "Repetition Position for Node 519 at Satellite" ETV
vector 2 Florasat.satellite[32].dlkDSL.mac "All Nodes Repetition Generation Delay at Satellite" ETV
vector 3 Florasat.satellite[32].dlkDSL.mac "Repetition Generation Delay for Node 519 at Satellite" ETV
vector 4 Florasat.satellite[32].dlkDSL.mac "All Nodes Message Generation Delay at Satellite" ETV
vector 5 Florasat.satellite[32].dlkDSL.mac "Message Generation Delay for Node 519 at Satellite" ETV
vector 6 Florasat.satellite[32].net.packetHandler "packets received" ETV
vector 7 Florasat.satellite[32].net.packetHandler "packets forwarded" ETV
vector 8 Florasat.satellite[22].net.packetHandler "packets received" ETV
vector 9 Florasat.satellite[22].net.packetHandler "packets forwarded" ETV
vector 10 Florasat.satellite[11].net.packetHandler "packets received" ETV
vector 11 Florasat.satellite[11].net.packetHandler "packets forwarded" ETV
vector 12 Florasat.station[10].dlk.mac "All Nodes Sending Delay" ETV
vector 13 Florasat.station[10].dlk.mac "All Nodes Generation Delay" ETV
vector 14 Florasat.station[10].dlk.mac "Sending Delay for Node 519" ETV
vector 15 Florasat.station[10].dlk.mac "Generation Delay for Node 519" ETV
vector 16 Florasat.satellite[15].dlkDSL.mac "Satellite Position when Repetition Received" ETV
vector 17 Florasat.satellite[15].dlkDSL.mac "Repetition Position for Node 281 at Satellite" ETV
vector 18 Florasat.satellite[15].dlkDSL.mac "All Nodes Repetition Generation Delay at Satellite" ETV
vector 19 Florasat.satellite[15].dlkDSL.mac "Repetition Generation Delay for Node 281 at Satellite" ETV
vector 20 Florasat.satellite[15].dlkDSL.mac "All Nodes Message Generation Delay at Satellite" ETV
vector 21 Florasat.satellite[15].dlkDSL.mac "Message Generation Delay for Node 281 at Satellite" ETV
vector 22 Florasat.satellite[15].net.packetHandler "packets received" ETV
vector 23 Florasat.satellite[15].net.packetHandler "packets forwarded" ETV
vector 24 Florasat.satellite[16].net.packetHandler "packets received" ETV
vector 25 Florasat.satellite[16].net.packetHandler "packets forwarded" ETV
vector 26 Florasat.satellite[17].net.packetHandler "packets received" ETV
vector 27 Florasat.satellite[17].net.packetHandler "packets forwarded" ETV
vector 28 Florasat.station[3].dlk.mac "All Nodes Sending Delay" ETV
vector 29 Florasat.station[3].dlk.mac "All Nodes Generation Delay" ETV
vector 30 Florasat.station[3].dlk.mac "Sending Delay for Node 281" ETV
vector 31 Florasat.station[3].dlk.mac "Generation Delay for Node 281" ETV
vector 32 Florasat.satellite[45].dlkDSL.mac "Satellite Position when Repetition Received" ETV
vector 33 Florasat.satellite[45].dlkDSL.mac "Repetition Position for Node 449 at Satellite" ETV
vector 34 Florasat.satellite[45].dlkDSL.mac "All Nodes Repetition Generation Delay at Satellite" ETV
vector 35 Florasat.satellite[45].dlkDSL.mac "Repetition Generation Delay for Node 449 at Satellite" ETV
vector 36 Florasat.satellite[45].dlkDSL.mac "All Nodes Message Generation Delay at Satellite" ETV
vector 37 Florasat.satellite[45].dlkDSL.mac "Message Generation Delay for Node 449 at Satellite" ETV
vector 38 Florasat.satellite[45].net.packetHandler "packets received" ETV
vector 39 Florasat.satellite[45].net.packetHandler "packets forwarded" ETV
vector 40 Florasat.satellite[46].net.packetHandler "packets received" ETV
vector 41 Florasat.satellite[46].net.packetHandler "packets forwarded" ETV
vector 42 Florasat.satellite[47].net.packetHandler "packets received" ETV
vector 43 Florasat.satellite[47].net.packetHandler "packets forwarded" ETV
vector 44 Florasat.station[6].dlk.mac "All Nodes Sending Delay" ETV
vector 45 Florasat.station[6].dlk.mac "All Nodes Generation Delay" ETV
vector 46 Florasat.station[6].dlk.mac "Sending Delay for Node 449" ETV
vector 47 Florasat.station[6].dlk.mac "Generation Delay for Node 449" ETV
vector 48 Florasat.satellite[56].dlkDSL.mac "Satellite Position when Repetition Received" ETV
vector 49 Florasat.satellite[56].dlkDSL.mac "Repetition Position for Node 463 at Satellite" ETV
vector 50 Florasat.satellite[56].dlkDSL.mac "All Nodes Repetition Generation Delay at Satellite" ETV
vector 51 Florasat.satellite[56].dlkDSL.mac "Repetition Generation Delay for Node 463 at Satellite" ETV
vector 52 Florasat.satellite[56].dlkDSL.mac "All Nodes Message Generation Delay at Satellite" ETV
vector 53 Florasat.satellite[56].dlkDSL.mac "Message Generation Delay for Node 463 at Satellite" ETV
vector 54 Florasat.satellite[56].net.packetHandler "packets received" ETV
vector 55 Florasat.satellite[56].net.packetHandler "packets forwarded" ETV
vector 56 Florasat.satellite[46].dlkDSL.mac "Satellite Position when Duplication Received" ETV
vector 57 Florasat.satellite[46].dlkDSL.mac "Duplication Position for Node 463 at Satellite" ETV
vector 58 Florasat.satellite[57].net.packetHandler "packets received" ETV
vector 59 Florasat.satellite[57].net.packetHandler "packets forwarded" ETV
vector 60 Florasat.station[6].dlk.mac "Sending Delay for Node 463" ETV
vector 61 Florasat.station[6].dlk.mac "Generation Delay for Node 463" ETV
vector 62 Florasat.satellite[58].net.packetHandler "packets received" ETV
vector 63 Florasat.satellite[58].net.packetHandler "packets forwarded" ETV
vector 64 Florasat.satellite[63].dlkDSL.mac "Satellite Position when Repetition Received" ETV
vector 65 Florasat.satellite[63].dlkDSL.mac "Repetition Position for Node 155 at Satellite" ETV
vector 66 Florasat.satellite[63].dlkDSL.mac "All Nodes Repetition Generation Delay at Satellite" ETV
vector 67 Florasat.satellite[63].dlkDSL.mac "Repetition Generation Delay for Node 155 at Satellite" ETV
vector 68 Florasat.satellite[63].dlkDSL.mac "All Nodes Message Generation Delay at Satellite" ETV
vector 69 Florasat.satellite[63].dlkDSL.mac "Message Generation Delay for Node 155 at Satellite" ETV
vector 70 Florasat.satellite[63].net.packetHandler "packets received" ETV
vector 71 Florasat.satellite[63].net.packetHandler "packets forwarded" ETV
vector 72 Florasat.satellite[4].dlkDSL.mac "Satellite Position when Duplication Received" ETV
vector 73 Florasat.satellite[4].dlkDSL.mac "Duplication Position for Node 155 at Satellite" ETV
vector 74 Florasat.satellite[4].net.packetHandler "packets received" ETV
vector 75 Florasat.satellite[4].net.packetHandler "packets forwarded" ETV
vector 76 Florasat.satellite[52].net.packetHandler "packets received" ETV
vector 77 Florasat.satellite[52].net.packetHandler "packets forwarded" ETV
vector 78 Florasat.station[13].dlk.mac "All Nodes Sending Delay" ETV
vector 79 Florasat.station[13].dlk.mac "All Nodes Generation Delay" ETV
vector 80 Florasat.station[13].dlk.mac "Sending Delay for Node 155" ETV
vector 81 Florasat.station[13].dlk.mac "Generation Delay for Node 155" ETV
vector 82 Florasat.satellite[51].net.packetHandler "packets received" ETV
vector 83 Florasat.satellite[51].net.packetHandler "packets forwarded" ETV
vector 84 Florasat.satellite[40].net.packetHandler "packets received" ETV
vector 85 Florasat.satellite[40].net.packetHandler "packets forwarded" ETV
vector 86 Florasat.satellite[39].net.packetHandler "packets received" ETV
vector 87 Florasat.satellite[39].net.packetHandler "packets forwarded" ETV
vector 88 Florasat.satellite[38].net.packetHandler "packets received" ETV
vector 89 Florasat.satellite[38].net.packetHandler "packets forwarded" ETV
vector 90 Florasat.satellite[27].net.packetHandler "packets received" ETV
vector 91 Florasat.satellite[27].net.packetHandler "packets forwarded" ETV
vector 92 Florasat.satellite[47].dlkDSL.mac "Satellite Position when Repetition Received" ETV
vector 93 Florasat.satellite[47].dlkDSL.mac "Repetition Position for Node 477 at Satellite" ETV
vector 94 Florasat.satellite[47].dlkDSL.mac "All Nodes Repetition Generation Delay at Satellite" ETV
vector 95 Florasat.satellite[47].dlkDSL.mac "Repetition Generation Delay for Node 477 at Satellite" ETV
vector 96 Florasat.satellite[47].dlkDSL.mac "All Nodes Message Generation Delay at Satellite" ETV
vector 97 Florasat.satellite[47].dlkDSL.mac "Message Generation Delay for Node 477 at Satellite" ETV
vector 98 Florasat.satellite[36].net.packetHandler "packets received" ETV
vector 99 Florasat.satellite[36].net.packetHandler "packets forwarded" ETV
vector 100 Florasat.station[15].dlk.mac "All Nodes Sending Delay" ETV
vector 101 Florasat.station[15].dlk.mac "All Nodes Generation Delay" ETV
vector 102 Florasat.station[15].dlk.mac "Sending Delay for Node 477" ETV
vector 103 Florasat.station[15].dlk.mac "Generation Delay for Node 477" ETV
vector 104 Florasat.satellite[16].dlkDSL.mac "Satellite Position when Repetition Received" ETV
vector 105 Florasat.satellite[16].dlkDSL.mac "Repetition Position for Node 267 at Satellite" ETV
vector 106 Florasat.satellite[16].dlkDSL.mac "All Nodes Repetition Generation Delay at Satellite" ETV
vector 107 Florasat.satellite[16].dlkDSL.mac "Repetition Generation Delay for Node 267 at Satellite" ETV
vector 108 Florasat.satellite[16].dlkDSL.mac "All Nodes Message Generation Delay at Satellite" ETV
vector 109 Florasat.satellite[16].dlkDSL.mac "Message Generation Delay for Node 267 at Satellite" ETV
vector 110 Florasat.station[3].dlk.mac "Sending Delay for Node 267" ETV
vector 111 Florasat.station[3].dlk.mac "Generation Delay for Node 267" ETV
vector 112 Florasat.satellite[64].dlkDSL.mac "Satellite Position when Repetition Received" ETV
vector 113 Florasat.satellite[64].dlkDSL.mac "Repetition Position for Node 295 at Satellite" ETV
vector 114 Florasat.satellite[64].dlkDSL.mac "All Nodes Repetition Generation Delay at Satellite" ETV
vector 115 Florasat.satellite[64].dlkDSL.mac "Repetition Generation Delay for Node 295 at Satellite" ETV
vector 116 Florasat.satellite[64].dlkDSL.mac "All Nodes Message Generation Delay at Satellite" ETV
vector 117 Florasat.satellite[64].dlkDSL.mac "Message Generation Delay for Node 295 at Satellite" ETV
vector 118 Florasat.satellite[64].net.packetHandler "packets received" ETV
vector 119 Florasat.satellite[64].net.packetHandler "packets forwarded" ETV
vector 120 Florasat.satellite[54].dlkDSL.mac "Satellite Position when Duplication Received" ETV
vector 121 Florasat.satellite[54].dlkDSL.mac "Duplication Position for Node 295 at Satellite" ETV
vector 122 Florasat.satellite[54].net.packetHandler "packets received" ETV
vector 123 Florasat.satellite[54].net.packetHandler "packets forwarded" ETV
vector 124 Florasat.satellite[53].dlkDSL.mac "Satellite Position when Duplication Received" ETV
vector 125 Florasat.satellite[53].dlkDSL.mac "Duplication Position for Node 295 at Satellite" ETV
vector 126 Florasat.satellite[53].net.packetHandler "packets received" ETV
vector 127 Florasat.satellite[53].net.packetHandler "packets forwarded" ETV
vector 128 Florasat.satellite[44].net.packetHandler "packets received" ETV
vector 129 Florasat.satellite[44].net.packetHandler "packets forwarded" ETV
vector 130 Florasat.satellite[34].net.packetHandler "packets received" ETV
vector 131 Florasat.satellite[34].net.packetHandler "packets forwarded" ETV
vector 132 Florasat.satellite[35].net.packetHandler "packets received" ETV
vector 133 Florasat.satellite[35].net.packetHandler "packets forwarded" ETV
vector 134 Florasat.satellite[24].net.packetHandler "packets received" ETV
vector 135 Florasat.satellite[24].net.packetHandler "packets forwarded" ETV
vector 136 Florasat.satellite[25].net.packetHandler "packets received" ETV
vector 137 Florasat.satellite[25].net.packetHandler "packets forwarded" ETV
vector 138 Florasat.satellite[14].net.packetHandler "packets received" ETV
vector 139 Florasat.satellite[14].net.packetHandler "packets forwarded" ETV
vector 140 Florasat.satellite[5].net.packetHandler "packets received" ETV
vector 141 Florasat.satellite[5].net.packetHandler "packets forwarded" ETV
vector 142 Florasat.station[16].dlk.mac "All Nodes Sending Delay" ETV
vector 143 Florasat.station[16].dlk.mac "All Nodes Generation Delay" ETV
vector 144 Florasat.station[16].dlk.mac "Sending Delay for Node 295" ETV
vector 145 Florasat.station[16].dlk.mac "Generation Delay for Node 295" ETV
vector 146 Florasat.satellite[45].dlkDSL.mac "Repetition Position for Node 337 at Satellite" ETV
vector 147 Florasat.satellite[45].dlkDSL.mac "Repetition Generation Delay for Node 337 at Satellite" ETV
vector 148 Florasat.satellite[45].dlkDSL.mac "Message Generation Delay for Node 337 at Satellite" ETV
vector 149 Florasat.satellite[44].dlkDSL.mac "Satellite Position when Duplication Received" ETV
vector 150 Florasat.satellite[44].dlkDSL.mac "Duplication Position for Node 337 at Satellite" ETV
vector 151 Florasat.station[15].dlk.mac "Sending Delay for Node 337" ETV
vector 152 Florasat.station[15].dlk.mac "Generation Delay for Node 337" ETV
vector 153 Florasat.satellite[45].dlkDSL.mac "Repetition Position for Node 365 at Satellite" ETV
vector 154 Florasat.satellite[45].dlkDSL.mac "Repetition Generation Delay for Node 365 at Satellite" ETV
vector 155 Florasat.satellite[45].dlkDSL.mac "Message Generation Delay for Node 365 at Satellite" ETV
vector 156 Florasat.station[7].dlk.mac "All Nodes Sending Delay" ETV
vector 157 Florasat.station[7].dlk.mac "All Nodes Generation Delay" ETV
vector 158 Florasat.station[7].dlk.mac "Sending Delay for Node 365" ETV
vector 159 Florasat.station[7].dlk.mac "Generation Delay for Node 365" ETV
vector 160 Florasat.satellite[40].dlkDSL.mac "Satellite Position when Repetition Received" ETV
vector 161 Florasat.satellite[40].dlkDSL.mac "Repetition Position for Node 547 at Satellite" ETV
vector 162 Florasat.satellite[40].dlkDSL.mac "All Nodes Repetition Generation Delay at Satellite" ETV
vector 163 Florasat.satellite[40].dlkDSL.mac "Repetition Generation Delay for Node 547 at Satellite" ETV
vector 164 Florasat.satellite[40].dlkDSL.mac "All Nodes Message Generation Delay at Satellite" ETV
vector 165 Florasat.satellite[40].dlkDSL.mac "Message Generation Delay for Node 547 at Satellite" ETV
vector 166 Florasat.station[2].dlk.mac "All Nodes Sending Delay" ETV
vector 167 Florasat.station[2].dlk.mac "All Nodes Generation Delay" ETV
vector 168 Florasat.station[2].dlk.mac "Sending Delay for Node 547" ETV
vector 169 Florasat.station[2].dlk.mac "Generation Delay for Node 547" ETV
vector 170 Florasat.satellite[45].dlkDSL.mac "Repetition Position for Node 323 at Satellite" ETV
vector 171 Florasat.satellite[45].dlkDSL.mac "Repetition Generation Delay for Node 323 at Satellite" ETV
vector 172 Florasat.satellite[45].dlkDSL.mac "Message Generation Delay for Node 323 at Satellite" ETV
vector 173 Florasat.satellite[34].dlkDSL.mac "Satellite Position when Duplication Received" ETV
vector 174 Florasat.satellite[34].dlkDSL.mac "Duplication Position for Node 323 at Satellite" ETV
vector 175 Florasat.station[19].dlk.mac "All Nodes Sending Delay" ETV
vector 176 Florasat.station[19].dlk.mac "All Nodes Generation Delay" ETV
vector 177 Florasat.station[19].dlk.mac "Sending Delay for Node 323" ETV
vector 178 Florasat.station[19].dlk.mac "Generation Delay for Node 323" ETV
vector 179 Florasat.satellite[16].dlkDSL.mac "Repetition Position for Node 211 at Satellite" ETV
vector 180 Florasat.satellite[16].dlkDSL.mac "Repetition Generation Delay for Node 211 at Satellite" ETV
vector 181 Florasat.satellite[16].dlkDSL.mac "Message Generation Delay for Node 211 at Satellite" ETV
vector 182 Florasat.station[3].dlk.mac "Sending Delay for Node 211" ETV
vector 183 Florasat.station[3].dlk.mac "Generation Delay for Node 211" ETV
vector 184 Florasat.satellite[55].dlkDSL.mac "Satellite Position when Repetition Received" ETV
vector 185 Florasat.satellite[55].dlkDSL.mac "Repetition Position for Node 491 at Satellite" ETV
vector 186 Florasat.satellite[55].dlkDSL.mac "All Nodes Repetition Generation Delay at Satellite" ETV
vector 187 Florasat.satellite[55].dlkDSL.mac "Repetition Generation Delay for Node 491 at Satellite" ETV
vector 188 Florasat.satellite[55].dlkDSL.mac "All Nodes Message Generation Delay at Satellite" ETV
vector 189 Florasat.satellite[55].dlkDSL.mac "Message Generation Delay for Node 491 at Satellite" ETV
vector 190 Florasat.satellite[55].net.packetHandler "packets received" ETV
vector 191 Florasat.satellite[55].net.packetHandler "packets forwarded" ETV
vector 192 Florasat.satellite[44].dlkDSL.mac "Duplication Position for Node 491 at Satellite" ETV
vector 193 Florasat.satellite[65].dlkDSL.mac "Satellite Position when Duplication Received" ETV
vector 194 Florasat.satellite[65].dlkDSL.mac "Duplication Position for Node 491 at Satellite" ETV
vector 195 Florasat.satellite[65].net.packetHandler "packets received" ETV
vector 196 Florasat.satellite[65].net.packetHandler "packets forwarded" ETV
vector 197 Florasat.station[6].dlk.mac "Sending Delay for Node 491" ETV
vector 198 Florasat.station[6].dlk.mac "Generation Delay for Node 491" ETV
vector 199 Florasat.satellite[17].dlkDSL.mac "Satellite Position when Repetition Received" ETV
vector 200 Florasat.satellite[17].dlkDSL.mac "Repetition Position for Node 225 at Satellite" ETV
vector 201 Florasat.satellite[17].dlkDSL.mac "All Nodes Repetition Generation Delay at Satellite" ETV
vector 202 Florasat.satellite[17].dlkDSL.mac "Repetition Generation Delay for Node 225 at Satellite" ETV
vector 203 Florasat.satellite[17].dlkDSL.mac "All Nodes Message Generation Delay at Satellite" ETV
vector 204 Florasat.satellite[17].dlkDSL.mac "Message Generation Delay for Node 225 at Satellite" ETV
vector 205 Florasat.satellite[27].dlkDSL.mac "Satellite Position when Duplication Received" ETV
vector 206 Florasat.satellite[27].dlkDSL.mac "Duplication Position for Node 225 at Satellite" ETV
vector 207 Florasat.station[13].dlk.mac "Sending Delay for Node 225" ETV
vector 208 Florasat.station[13].dlk.mac "Generation Delay for Node 225" ETV
vector 209 Florasat.satellite[14].dlkDSL.mac "Satellite Position when Repetition Received" ETV
vector 210 Florasat.satellite[14].dlkDSL.mac "Repetition Position for Node 169 at Satellite" ETV
vector 211 Florasat.satellite[14].dlkDSL.mac "All Nodes Repetition Generation Delay at Satellite" ETV
vector 212 Florasat.satellite[14].dlkDSL.mac "Repetition Generation Delay for Node 169 at Satellite" ETV
vector 213 Florasat.satellite[14].dlkDSL.mac "All Nodes Message Generation Delay at Satellite" ETV
vector 214 Florasat.satellite[14].dlkDSL.mac "Message Generation Delay for Node 169 at Satellite" ETV
vector 215 Florasat.satellite[4].dlkDSL.mac "Duplication Position for Node 169 at Satellite" ETV
vector 216 Florasat.station[13].dlk.mac "Sending Delay for Node 169" ETV
vector 217 Florasat.station[13].dlk.mac "Generation Delay for Node 169" ETV
vector 218 Florasat.satellite[17].dlkDSL.mac "Repetition Position for Node 253 at Satellite" ETV
vector 219 Florasat.satellite[17].dlkDSL.mac "Repetition Generation Delay for Node 253 at Satellite" ETV
vector 220 Florasat.satellite[17].dlkDSL.mac "Message Generation Delay for Node 253 at Satellite" ETV
vector 221 Florasat.station[13].dlk.mac "Sending Delay for Node 253" ETV
vector 222 Florasat.station[13].dlk.mac "Generation Delay for Node 253" ETV
vector 223 Florasat.satellite[44].dlkDSL.mac "Satellite Position when Repetition Received" ETV
vector 224 Florasat.satellite[44].dlkDSL.mac "Repetition Position for Node 393 at Satellite" ETV
vector 225 Florasat.satellite[44].dlkDSL.mac "All Nodes Repetition Generation Delay at Satellite" ETV
vector 226 Florasat.satellite[44].dlkDSL.mac "Repetition Generation Delay for Node 393 at Satellite" ETV
vector 227 Florasat.satellite[44].dlkDSL.mac "All Nodes Message Generation Delay at Satellite" ETV
vector 228 Florasat.satellite[44].dlkDSL.mac "Message Generation Delay for Node 393 at Satellite" ETV
vector 229 Florasat.satellite[65].dlkDSL.mac "Duplication Position for Node 393 at Satellite" ETV
vector 230 Florasat.satellite[34].dlkDSL.mac "Duplication Position for Node 393 at Satellite" ETV
vector 231 Florasat.station[19].dlk.mac "Sending Delay for Node 393" ETV
vector 232 Florasat.station[19].dlk.mac "Generation Delay for Node 393" ETV
vector 233 Florasat.satellite[34].dlkDSL.mac "Satellite Position when Repetition Received" ETV
vector 234 Florasat.satellite[34].dlkDSL.mac "Repetition Position for Node 309 at Satellite" ETV
vector 235 Florasat.satellite[34].dlkDSL.mac "All Nodes Repetition Generation Delay at Satellite" ETV
vector 236 Florasat.satellite[34].dlkDSL.mac "Repetition Generation Delay for Node 309 at Satellite" ETV
vector 237 Florasat.satellite[34].dlkDSL.mac "All Nodes Message Generation Delay at Satellite" ETV
vector 238 Florasat.satellite[34].dlkDSL.mac "Message Generation Delay for Node 309 at Satellite" ETV
vector 239 Florasat.satellite[45].dlkDSL.mac "Satellite Position when Duplication Received" ETV
vector 240 Florasat.satellite[45].dlkDSL.mac "Duplication Position for Node 309 at Satellite" ETV
vector 241 Florasat.station[19].dlk.mac "Sending Delay for Node 309" ETV
vector 242 Florasat.station[19].dlk.mac "Generation Delay for Node 309" ETV
vector 243 Florasat.satellite[45].dlkDSL.mac "Repetition Position for Node 407 at Satellite" ETV
vector 244 Florasat.satellite[45].dlkDSL.mac "Repetition Generation Delay for Node 407 at Satellite" ETV
vector 245 Florasat.satellite[45].dlkDSL.mac "Message Generation Delay for Node 407 at Satellite" ETV
vector 246 Florasat.station[19].dlk.mac "Sending Delay for Node 407" ETV
vector 247 Florasat.station[19].dlk.mac "Generation Delay for Node 407" ETV
vector 248 Florasat.satellite[35].dlkDSL.mac "Satellite Position when Repetition Received" ETV
vector 249 Florasat.satellite[35].dlkDSL.mac "Repetition Position for Node 351 at Satellite" ETV
vector 250 Florasat.satellite[35].dlkDSL.mac "All Nodes Repetition Generation Delay at Satellite" ETV
vector 251 Florasat.satellite[35].dlkDSL.mac "Repetition Generation Delay for Node 351 at Satellite" ETV
vector 252 Florasat.satellite[35].dlkDSL.mac "All Nodes Message Generation Delay at Satellite" ETV
vector 253 Florasat.satellite[35].dlkDSL.mac "Message Generation Delay for Node 351 at Satellite" ETV
vector 254 Florasat.satellite[45].dlkDSL.mac "Duplication Position for Node 351 at Satellite" ETV
vector 255 Florasat.station[7].dlk.mac "Sending Delay for Node 351" ETV
vector 256 Florasat.station[7].dlk.mac "Generation Delay for Node 351" ETV
vector 257 Florasat.satellite[5].dlkDSL.mac "Satellite Position when Repetition Received" ETV
vector 258 Florasat.satellite[5].dlkDSL.mac "Repetition Position for Node 183 at Satellite" ETV
vector 259 Florasat.satellite[5].dlkDSL.mac "All Nodes Repetition Generation Delay at Satellite" ETV
vector 260 Florasat.satellite[5].dlkDSL.mac "Repetition Generation Delay for Node 183 at Satellite" ETV
vector 261 Florasat.satellite[5].dlkDSL.mac "All Nodes Message Generation Delay at Satellite" ETV
vector 262 Florasat.satellite[5].dlkDSL.mac "Message Generation Delay for Node 183 at Satellite" ETV
vector 263 Florasat.station[12].dlk.mac "All Nodes Sending Delay" ETV
vector 264 Florasat.station[12].dlk.mac "All Nodes Generation Delay" ETV
vector 265 Florasat.station[12].dlk.mac "Sending Delay for Node 183" ETV
vector 266 Florasat.station[12].dlk.mac "Generation Delay for Node 183" ETV
vector 267 Florasat.satellite[44].dlkDSL.mac "Repetition Position for Node 421 at Satellite" ETV
vector 268 Florasat.satellite[44].dlkDSL.mac "Repetition Generation Delay for Node 421 at Satellite" ETV
vector 269 Florasat.satellite[44].dlkDSL.mac "Message Generation Delay for Node 421 at Satellite" ETV
vector 270 Florasat.satellite[34].dlkDSL.mac "Duplication Position for Node 421 at Satellite" ETV
vector 271 Florasat.satellite[65].dlkDSL.mac "Duplication Position for Node 421 at Satellite" ETV
vector 272 Florasat.station[19].dlk.mac "Sending Delay for Node 421" ETV
vector 273 Florasat.station[19].dlk.mac "Generation Delay for Node 421" ETV
vector 274 Florasat.satellite[11].dlkDSL.mac "Satellite Position when Repetition Received" ETV
vector 275 Florasat.satellite[11].dlkDSL.mac "Repetition Position for Node 505 at Satellite" ETV
vector 276 Florasat.satellite[11].dlkDSL.mac "All Nodes Repetition Generation Delay at Satellite" ETV
vector 277 Florasat.satellite[11].dlkDSL.mac "Repetition Generation Delay for Node 505 at Satellite" ETV
vector 278 Florasat.satellite[11].dlkDSL.mac "All Nodes Message Generation Delay at Satellite" ETV
vector 279 Florasat.satellite[11].dlkDSL.mac "Message Generation Delay for Node 505 at Satellite" ETV
vector 280 Florasat.satellite[21].net.packetHandler "packets received" ETV
vector 281 Florasat.satellite[21].net.packetHandler "packets forwarded" ETV
vector 282 Florasat.station[17].dlk.mac "All Nodes Sending Delay" ETV
vector 283 Florasat.station[17].dlk.mac "All Nodes Generation Delay" ETV
vector 284 Florasat.station[17].dlk.mac "Sending Delay for Node 505" ETV
vector 285 Florasat.station[17].dlk.mac "Generation Delay for Node 505" ETV
vector 286 Florasat.satellite[14].dlkDSL.mac "Repetition Position for Node 141 at Satellite" ETV
vector 287 Florasat.satellite[14].dlkDSL.mac "Repetition Generation Delay for Node 141 at Satellite" ETV
vector 288 Florasat.satellite[14].dlkDSL.mac "Message Generation Delay for Node 141 at Satellite" ETV
vector 289 Florasat.station[16].dlk.mac "Sending Delay for Node 141" ETV
vector 290 Florasat.station[16].dlk.mac "Generation Delay for Node 141" ETV
vector 291 Florasat.satellite[26].dlkDSL.mac "Satellite Position when Repetition Received" ETV
vector 292 Florasat.satellite[26].dlkDSL.mac "Repetition Position for Node 239 at Satellite" ETV
vector 293 Florasat.satellite[26].dlkDSL.mac "All Nodes Repetition Generation Delay at Satellite" ETV
vector 294 Florasat.satellite[26].dlkDSL.mac "Repetition Generation Delay for Node 239 at Satellite" ETV
vector 295 Florasat.satellite[26].dlkDSL.mac "All Nodes Message Generation Delay at Satellite" ETV
vector 296 Florasat.satellite[26].dlkDSL.mac "Message Generation Delay for Node 239 at Satellite" ETV
vector 297 Florasat.satellite[26].net.packetHandler "packets received" ETV
vector 298 Florasat.satellite[26].net.packetHandler "packets forwarded" ETV
vector 299 Florasat.satellite[27].dlkDSL.mac "Duplication Position for Node 239 at Satellite" ETV
vector 300 Florasat.satellite[37].net.packetHandler "packets received" ETV
vector 301 Florasat.satellite[37].net.packetHandler "packets forwarded" ETV
vector 302 Florasat.station[6].dlk.mac "Sending Delay for Node 239" ETV
vector 303 Florasat.station[6].dlk.mac "Generation Delay for Node 239" ETV
vector 304 Florasat.satellite[45].dlkDSL.mac "Repetition Position for Node 435 at Satellite" ETV
vector 305 Florasat.satellite[45].dlkDSL.mac "Repetition Generation Delay for Node 435 at Satellite" ETV
vector 306 Florasat.satellite[45].dlkDSL.mac "Message Generation Delay for Node 435 at Satellite" ETV
vector 307 Florasat.satellite[55].dlkDSL.mac "Satellite Position when Duplication Received" ETV
vector 308 Florasat.satellite[55].dlkDSL.mac "Duplication Position for Node 435 at Satellite" ETV
vector 309 Florasat.station[6].dlk.mac "Sending Delay for Node 435" ETV
vector 310 Florasat.station[6].dlk.mac "Generation Delay for Node 435" ETV
vector 311 Florasat.satellite[44].dlkDSL.mac "Repetition Position for Node 379 at Satellite" ETV
vector 312 Florasat.satellite[44].dlkDSL.mac "Repetition Generation Delay for Node 379 at Satellite" ETV
vector 313 Florasat.satellite[44].dlkDSL.mac "Message Generation Delay for Node 379 at Satellite" ETV
vector 314 Florasat.satellite[34].dlkDSL.mac "Duplication Position for Node 379 at Satellite" ETV
vector 315 Florasat.station[15].dlk.mac "Sending Delay for Node 379" ETV
vector 316 Florasat.station[15].dlk.mac "Generation Delay for Node 379" ETV
vector 317 Florasat.satellite[15].dlkDSL.mac "Repetition Position for Node 197 at Satellite" ETV
vector 318 Florasat.satellite[15].dlkDSL.mac "Repetition Generation Delay for Node 197 at Satellite" ETV
vector 319 Florasat.satellite[15].dlkDSL.mac "Message Generation Delay for Node 197 at Satellite" ETV
vector 320 Florasat.station[3].dlk.mac "Sending Delay for Node 197" ETV
vector 321 Florasat.station[3].dlk.mac "Generation Delay for Node 197" ETV
vector 322 Florasat.satellite[30].dlkDSL.mac "Satellite Position when Repetition Received" ETV
vector 323 Florasat.satellite[30].dlkDSL.mac "Repetition Position for Node 533 at Satellite" ETV
vector 324 Florasat.satellite[30].dlkDSL.mac "All Nodes Repetition Generation Delay at Satellite" ETV
vector 325 Florasat.satellite[30].dlkDSL.mac "Repetition Generation Delay for Node 533 at Satellite" ETV
vector 326 Florasat.satellite[30].dlkDSL.mac "All Nodes Message Generation Delay at Satellite" ETV
vector 327 Florasat.satellite[30].dlkDSL.mac "Message Generation Delay for Node 533 at Satellite" ETV
vector 328 Florasat.satellite[30].net.packetHandler "packets received" ETV
vector 329 Florasat.satellite[30].net.packetHandler "packets forwarded" ETV
vector 330 Florasat.satellite[40].dlkDSL.mac "Satellite Position when Duplication Received" ETV
vector 331 Florasat.satellite[40].dlkDSL.mac "Duplication Position for Node 533 at Satellite" ETV
vector 332 Florasat.satellite[31].net.packetHandler "packets received" ETV
vector 333 Florasat.satellite[31].net.packetHandler "packets forwarded" ETV
vector 334 Florasat.satellite[41].net.packetHandler "packets received" ETV
vector 335 Florasat.satellite[41].net.packetHandler "packets forwarded" ETV
vector 336 Florasat.satellite[42].net.packetHandler "packets received" ETV
vector 337 Florasat.satellite[42].net.packetHandler "packets forwarded" ETV
vector 338 Florasat.station[9].dlk.mac "All Nodes Sending Delay" ETV
vector 339 Florasat.station[9].dlk.mac "All Nodes Generation Delay" ETV
vector 340 Florasat.station[9].dlk.mac "Sending Delay for Node 533" ETV
vector 341 Florasat.station[9].dlk.mac "Generation Delay for Node 533" ETV
vector 342 Florasat.satellite[43].net.packetHandler "packets received" ETV
vector 343 Florasat.satellite[43].net.packetHandler "packets forwarded" ETV
vector 344 Florasat.satellite[15].dlkDSL.mac "Repetition Position for Node 267 at Satellite" ETV
vector 345 Florasat.satellite[15].dlkDSL.mac "Repetition Generation Delay for Node 267 at Satellite" ETV
vector 346 Florasat.satellite[44].dlkDSL.mac "Repetition Position for Node 337 at Satellite" ETV
vector 347 Florasat.satellite[44].dlkDSL.mac "Repetition Generation Delay for Node 337 at Satellite" ETV
vector 348 Florasat.satellite[34].dlkDSL.mac "Duplication Position for Node 337 at Satellite" ETV
vector 349 Florasat.satellite[55].dlkDSL.mac "Duplication Position for Node 449 at Satellite" ETV
vector 350 Florasat.satellite[4].dlkDSL.mac "Satellite Position when Repetition Received" ETV
vector 351 Florasat.satellite[4].dlkDSL.mac "Repetition Position for Node 155 at Satellite" ETV
vector 352 Florasat.satellite[4].dlkDSL.mac "All Nodes Repetition Generation Delay at Satellite" ETV
vector 353 Florasat.satellite[4].dlkDSL.mac "Repetition Generation Delay for Node 155 at Satellite" ETV
vector 354 Florasat.satellite[63].dlkDSL.mac "Satellite Position when Duplication Received" ETV
vector 355 Florasat.satellite[63].dlkDSL.mac "Duplication Position for Node 155 at Satellite" ETV
vector 356 Florasat.satellite[29].net.packetHandler "packets received" ETV
vector 357 Florasat.satellite[29].net.packetHandler "packets forwarded" ETV
vector 358 Florasat.satellite[28].net.packetHandler "packets received" ETV
vector 359 Florasat.satellite[28].net.packetHandler "packets forwarded" ETV
vector 360 Florasat.satellite[53].dlkDSL.mac "Satellite Position when Repetition Received" ETV
vector 361 Florasat.satellite[53].dlkDSL.mac "Repetition Position for Node 295 at Satellite" ETV
vector 362 Florasat.satellite[53].dlkDSL.mac "All Nodes Repetition Generation Delay at Satellite" ETV
vector 363 Florasat.satellite[53].dlkDSL.mac "Repetition Generation Delay for Node 295 at Satellite" ETV
vector 364 Florasat.satellite[3].dlkDSL.mac "Satellite Position when Duplication Received" ETV
vector 365 Florasat.satellite[3].dlkDSL.mac "Duplication Position for Node 295 at Satellite" ETV
vector 366 Florasat.satellite[3].net.packetHandler "packets received" ETV
vector 367 Florasat.satellite[3].net.packetHandler "packets forwarded" ETV
vector 368 Florasat.satellite[65].dlkDSL.mac "Satellite Position when Repetition Received" ETV
vector 369 Florasat.satellite[65].dlkDSL.mac "Repetition Position for Node 491 at Satellite" ETV
vector 370 Florasat.satellite[65].dlkDSL.mac "All Nodes Repetition Generation Delay at Satellite" ETV
vector 371 Florasat.satellite[65].dlkDSL.mac "Repetition Generation Delay for Node 491 at Satellite" ETV
vector 372 Florasat.satellite[16].dlkDSL.mac "Repetition Position for Node 225 at Satellite" ETV
vector 373 Florasat.satellite[16].dlkDSL.mac "Repetition Generation Delay for Node 225 at Satellite" ETV
vector 374 Florasat.satellite[50].dlkDSL.mac "Satellite Position when Duplication Received" ETV
vector 375 Florasat.satellite[50].dlkDSL.mac "Duplication Position for Node 547 at Satellite" ETV
vector 376 Florasat.satellite[50].net.packetHandler "packets received" ETV
vector 377 Florasat.satellite[50].net.packetHandler "packets forwarded" ETV
vector 378 Florasat.satellite[49].net.packetHandler "packets received" ETV
vector 379 Florasat.satellite[49].net.packetHandler "packets forwarded" ETV
vector 380 Florasat.satellite[48].net.packetHandler "packets received" ETV
vector 381 Florasat.satellite[48].net.packetHandler "packets forwarded" ETV
vector 382 Florasat.satellite[34].dlkDSL.mac "Repetition Position for Node 323 at Satellite" ETV
vector 383 Florasat.satellite[34].dlkDSL.mac "Repetition Generation Delay for Node 323 at Satellite" ETV
vector 384 Florasat.satellite[44].dlkDSL.mac "Duplication Position for Node 323 at Satellite" ETV
vector 385 Florasat.satellite[16].dlkDSL.mac "Repetition Position for Node 253 at Satellite" ETV
vector 386 Florasat.satellite[16].dlkDSL.mac "Repetition Generation Delay for Node 253 at Satellite" ETV
vector 387 Florasat.satellite[17].dlkDSL.mac "Satellite Position when Duplication Received" ETV
vector 388 Florasat.satellite[17].dlkDSL.mac "Duplication Position for Node 253 at Satellite" ETV
vector 389 Florasat.satellite[44].dlkDSL.mac "Duplication Position for Node 309 at Satellite" ETV
vector 390 Florasat.satellite[34].dlkDSL.mac "Repetition Position for Node 351 at Satellite" ETV
vector 391 Florasat.satellite[34].dlkDSL.mac "Repetition Generation Delay for Node 351 at Satellite" ETV
vector 392 Florasat.satellite[35].dlkDSL.mac "Satellite Position when Duplication Received" ETV
vector 393 Florasat.satellite[35].dlkDSL.mac "Duplication Position for Node 351 at Satellite" ETV
vector 394 Florasat.satellite[44].dlkDSL.mac "Repetition Position for Node 407 at Satellite" ETV
vector 395 Florasat.satellite[44].dlkDSL.mac "Repetition Generation Delay for Node 407 at Satellite" ETV
vector 396 Florasat.satellite[45].dlkDSL.mac "Duplication Position for Node 407 at Satellite" ETV
vector 397 Florasat.satellite[44].dlkDSL.mac "Duplication Position for Node 365 at Satellite" ETV
vector 398 Florasat.satellite[63].dlkDSL.mac "Duplication Position for Node 295 at Satellite" ETV
vector 399 Florasat.satellite[43].dlkDSL.mac "Satellite Position when Duplication Received" ETV
vector 400 Florasat.satellite[43].dlkDSL.mac "Duplication Position for Node 295 at Satellite" ETV
vector 401 Florasat.satellite[12].net.packetHandler "packets received" ETV
vector 402 Florasat.satellite[12].net.packetHandler "packets forwarded" ETV
vector 403 Florasat.satellite[13].net.packetHandler "packets received" ETV
vector 404 Florasat.satellite[13].net.packetHandler "packets forwarded" ETV
vector 405 Florasat.satellite[62].dlkDSL.mac "Satellite Position when Duplication Received" ETV
vector 406 Florasat.satellite[62].dlkDSL.mac "Duplication Position for Node 155 at Satellite" ETV
vector 407 Florasat.satellite[62].net.packetHandler "packets received" ETV
vector 408 Florasat.satellite[62].net.packetHandler "packets forwarded" ETV
vector 409 Florasat.satellite[61].net.packetHandler "packets received" ETV
vector 410 Florasat.satellite[61].net.packetHandler "packets forwarded" ETV
vector 411 Florasat.satellite[44].dlkDSL.mac "Repetition Position for Node 323 at Satellite" ETV
vector 412 Florasat.satellite[44].dlkDSL.mac "Repetition Generation Delay for Node 323 at Satellite" ETV
vector 413 Florasat.satellite[4].dlkDSL.mac "Repetition Position for Node 183 at Satellite" ETV
vector 414 Florasat.satellite[4].dlkDSL.mac "Repetition Generation Delay for Node 183 at Satellite" ETV
vector 415 Florasat.satellite[44].dlkDSL.mac "Repetition Position for Node 309 at Satellite" ETV
vector 416 Florasat.satellite[44].dlkDSL.mac "Repetition Generation Delay for Node 309 at Satellite" ETV
vector 417 Florasat.satellite[34].dlkDSL.mac "Duplication Position for Node 309 at Satellite" ETV
vector 418 Florasat.satellite[44].dlkDSL.mac "Duplication Position for Node 351 at Satellite" ETV
vector 419 Florasat.satellite[44].dlkDSL.mac "Duplication Position for Node 435 at Satellite" ETV
vector 420 Florasat.satellite[44].dlkDSL.mac "Repetition Position for Node 365 at Satellite" ETV
vector 421 Florasat.satellite[44].dlkDSL.mac "Repetition Generation Delay for Node 365 at Satellite" ETV
vector 422 Florasat.satellite[23].net.packetHandler "packets received" ETV
vector 423 Florasat.satellite[23].net.packetHandler "packets forwarded" ETV
vector 424 Florasat.satellite[26].dlkDSL.mac "Satellite Position when Duplication Received" ETV
vector 425 Florasat.satellite[26].dlkDSL.mac "Duplication Position for Node 225 at Satellite" ETV
vector 426 Florasat.satellite[55].dlkDSL.mac "Repetition Position for Node 449 at Satellite" ETV
vector 427 Florasat.satellite[55].dlkDSL.mac "Repetition Generation Delay for Node 449 at Satellite" ETV
vector 428 Florasat.satellite[45].dlkDSL.mac "Duplication Position for Node 449 at Satellite" ETV
vector 429 Florasat.satellite[15].dlkDSL.mac "Repetition Position for Node 211 at Satellite" ETV
vector 430 Florasat.satellite[15].dlkDSL.mac "Repetition Generation Delay for Node 211 at Satellite" ETV
vector 431 Florasat.satellite[65].dlkDSL.mac "Duplication Position for Node 407 at Satellite" ETV
vector 432 Florasat.satellite[32].dlkDSL.mac "Satellite Position when Duplication Received" ETV
vector 433 Florasat.satellite[32].dlkDSL.mac "Duplication Position for Node 505 at Satellite" ETV
vector 434 Florasat.satellite[44].dlkDSL.mac "Repetition Position for Node 435 at Satellite" ETV
vector 435 Florasat.satellite[44].dlkDSL.mac "Repetition Generation Delay for Node 435 at Satellite" ETV
vector 436 Florasat.satellite[40].dlkDSL.mac "Repetition Position for Node 533 at Satellite" ETV
vector 437 Florasat.satellite[40].dlkDSL.mac "Repetition Generation Delay for Node 533 at Satellite" ETV
vector 438 Florasat.satellite[30].dlkDSL.mac "Satellite Position when Duplication Received" ETV
vector 439 Florasat.satellite[30].dlkDSL.mac "Duplication Position for Node 533 at Satellite" ETV
vector 440 Florasat.satellite[62].dlkDSL.mac "Satellite Position when Repetition Received" ETV
vector 441 Florasat.satellite[62].dlkDSL.mac "Repetition Position for Node 155 at Satellite" ETV
vector 442 Florasat.satellite[62].dlkDSL.mac "All Nodes Repetition Generation Delay at Satellite" ETV
vector 443 Florasat.satellite[62].dlkDSL.mac "Repetition Generation Delay for Node 155 at Satellite" ETV
vector 444 Florasat.satellite[33].net.packetHandler "packets received" ETV
vector 445 Florasat.satellite[33].net.packetHandler "packets forwarded" ETV
vector 446 Florasat.satellite[13].dlkDSL.mac "Satellite Position when Duplication Received" ETV
vector 447 Florasat.satellite[13].dlkDSL.mac "Duplication Position for Node 169 at Satellite" ETV
vector 448 Florasat.satellite[65].dlkDSL.mac "Repetition Position for Node 393 at Satellite" ETV
vector 449 Florasat.satellite[65].dlkDSL.mac "Repetition Generation Delay for Node 393 at Satellite" ETV
vector 450 Florasat.satellite[54].dlkDSL.mac "Duplication Position for Node 393 at Satellite" ETV
vector 451 Florasat.satellite[46].dlkDSL.mac "Satellite Position when Repetition Received" ETV
vector 452 Florasat.satellite[46].dlkDSL.mac "Repetition Position for Node 477 at Satellite" ETV
vector 453 Florasat.satellite[46].dlkDSL.mac "All Nodes Repetition Generation Delay at Satellite" ETV
vector 454 Florasat.satellite[46].dlkDSL.mac "Repetition Generation Delay for Node 477 at Satellite" ETV
vector 455 Florasat.satellite[47].dlkDSL.mac "Satellite Position when Duplication Received" ETV
vector 456 Florasat.satellite[47].dlkDSL.mac "Duplication Position for Node 477 at Satellite" ETV
vector 457 Florasat.satellite[54].dlkDSL.mac "Satellite Position when Repetition Received" ETV
vector 458 Florasat.satellite[54].dlkDSL.mac "Repetition Position for Node 421 at Satellite" ETV
vector 459 Florasat.satellite[54].dlkDSL.mac "All Nodes Repetition Generation Delay at Satellite" ETV
vector 460 Florasat.satellite[54].dlkDSL.mac "Repetition Generation Delay for Node 421 at Satellite" ETV
vector 461 Florasat.satellite[33].dlkDSL.mac "Satellite Position when Duplication Received" ETV
vector 462 Florasat.satellite[33].dlkDSL.mac "Duplication Position for Node 421 at Satellite" ETV
vector 463 Florasat.satellite[0].net.packetHandler "packets received" ETV
vector 464 Florasat.satellite[0].net.packetHandler "packets forwarded" ETV
vector 465 Florasat.satellite[29].dlkDSL.mac "Satellite Position when Repetition Received" ETV
vector 466 Florasat.satellite[29].dlkDSL.mac "Repetition Position for Node 533 at Satellite" ETV
vector 467 Florasat.satellite[29].dlkDSL.mac "All Nodes Repetition Generation Delay at Satellite" ETV
vector 468 Florasat.satellite[29].dlkDSL.mac "Repetition Generation Delay for Node 533 at Satellite" ETV
vector 469 Florasat.satellite[31].dlkDSL.mac "Satellite Position when Duplication Received" ETV
vector 470 Florasat.satellite[31].dlkDSL.mac "Duplication Position for Node 519 at Satellite" ETV
vector 471 Florasat.satellite[14].dlkDSL.mac "Repetition Position for Node 281 at Satellite" ETV
vector 472 Florasat.satellite[14].dlkDSL.mac "Repetition Generation Delay for Node 281 at Satellite" ETV
vector 473 Florasat.satellite[15].dlkDSL.mac "Satellite Position when Duplication Received" ETV
vector 474 Florasat.satellite[15].dlkDSL.mac "Duplication Position for Node 281 at Satellite" ETV
vector 475 Florasat.satellite[63].dlkDSL.mac "Repetition Position for Node 295 at Satellite" ETV
vector 476 Florasat.satellite[63].dlkDSL.mac "Repetition Generation Delay for Node 295 at Satellite" ETV
vector 477 Florasat.satellite[13].dlkDSL.mac "Satellite Position when Repetition Received" ETV
vector 478 Florasat.satellite[13].dlkDSL.mac "Repetition Position for Node 169 at Satellite" ETV
vector 479 Florasat.satellite[13].dlkDSL.mac "All Nodes Repetition Generation Delay at Satellite" ETV
vector 480 Florasat.satellite[13].dlkDSL.mac "Repetition Generation Delay for Node 169 at Satellite" ETV
vector 481 Florasat.satellite[44].dlkDSL.mac "Repetition Position for Node 449 at Satellite" ETV
vector 482 Florasat.satellite[44].dlkDSL.mac "Repetition Generation Delay for Node 449 at Satellite" ETV
vector 483 Florasat.satellite[54].dlkDSL.mac "Repetition Position for Node 393 at Satellite" ETV
vector 484 Florasat.satellite[54].dlkDSL.mac "Repetition Generation Delay for Node 393 at Satellite" ETV
vector 485 Florasat.satellite[64].dlkDSL.mac "Satellite Position when Duplication Received" ETV
vector 486 Florasat.satellite[64].dlkDSL.mac "Duplication Position for Node 393 at Satellite" ETV
vector 487 Florasat.satellite[33].dlkDSL.mac "Duplication Position for Node 393 at Satellite" ETV
vector 488 Florasat.satellite[39].dlkDSL.mac "Satellite Position when Repetition Received" ETV
vector 489 Florasat.satellite[39].dlkDSL.mac "Repetition Position for Node 547 at Satellite" ETV
vector 490 Florasat.satellite[39].dlkDSL.mac "All Nodes Repetition Generation Delay at Satellite" ETV
vector 491 Florasat.satellite[39].dlkDSL.mac "Repetition Generation Delay for Node 547 at Satellite" ETV
vector 492 Florasat.satellite[13].dlkDSL.mac "Repetition Position for Node 141 at Satellite" ETV
vector 493 Florasat.satellite[13].dlkDSL.mac "Repetition Generation Delay for Node 141 at Satellite" ETV
vector 494 Florasat.satellite[33].dlkDSL.mac "Satellite Position when Repetition Received" ETV
vector 495 Florasat.satellite[33].dlkDSL.mac "Repetition Position for Node 309 at Satellite" ETV
vector 496 Florasat.satellite[33].dlkDSL.mac "All Nodes Repetition Generation Delay at Satellite" ETV
vector 497 Florasat.satellite[33].dlkDSL.mac "Repetition Generation Delay for Node 309 at Satellite" ETV
vector 498 Florasat.satellite[14].dlkDSL.mac "Satellite Position when Duplication Received" ETV
vector 499 Florasat.satellite[14].dlkDSL.mac "Duplication Position for Node 197 at Satellite" ETV
vector 500 Florasat.satellite[65].dlkDSL.mac "Duplication Position for Node 435 at Satellite" ETV
vector 501 Florasat.satellite[64].dlkDSL.mac "Duplication Position for Node 421 at Satellite" ETV
vector 502 Florasat.satellite[21].dlkDSL.mac "Satellite Position when Repetition Received" ETV
vector 503 Florasat.satellite[21].dlkDSL.mac "Repetition Position for Node 505 at Satellite" ETV
vector 504 Florasat.satellite[21].dlkDSL.mac "All Nodes Repetition Generation Delay at Satellite" ETV
vector 505 Florasat.satellite[21].dlkDSL.mac "Repetition Generation Delay for Node 505 at Satellite" ETV
vector 506 Florasat.satellite[20].net.packetHandler "packets received" ETV
vector 507 Florasat.satellite[20].net.packetHandler "packets forwarded" ETV
vector 508 Florasat.satellite[39].dlkDSL.mac "Satellite Position when Duplication Received" ETV
vector 509 Florasat.satellite[39].dlkDSL.mac "Duplication Position for Node 533 at Satellite" ETV
vector 510 Florasat.satellite[3].dlkDSL.mac "Satellite Position when Repetition Received" ETV
vector 511 Florasat.satellite[3].dlkDSL.mac "Repetition Position for Node 183 at Satellite" ETV
vector 512 Florasat.satellite[3].dlkDSL.mac "All Nodes Repetition Generation Delay at Satellite" ETV
vector 513 Florasat.satellite[3].dlkDSL.mac "Repetition Generation Delay for Node 183 at Satellite" ETV
vector 514 Florasat.satellite[3].dlkDSL.mac "All Nodes Message Generation Delay at Satellite" ETV
vector 515 Florasat.satellite[3].dlkDSL.mac "Message Generation Delay for Node 183 at Satellite" ETV
vector 516 Florasat.satellite[2].net.packetHandler "packets received" ETV
vector 517 Florasat.satellite[2].net.packetHandler "packets forwarded" ETV
vector 518 Florasat.station[2].dlk.mac "Sending Delay for Node 183" ETV
vector 519 Florasat.station[2].dlk.mac "Generation Delay for Node 183" ETV
vector 520 Florasat.satellite[14].dlkDSL.mac "Message Generation Delay for Node 281 at Satellite" ETV
vector 521 Florasat.satellite[14].dlkDSL.mac "Repetition Position for Node 267 at Satellite" ETV
vector 522 Florasat.satellite[14].dlkDSL.mac "Repetition Generation Delay for Node 267 at Satellite" ETV
vector 523 Florasat.satellite[14].dlkDSL.mac "Message Generation Delay for Node 267 at Satellite" ETV
vector 524 Florasat.satellite[55].dlkDSL.mac "Repetition Position for Node 463 at Satellite" ETV
vector 525 Florasat.satellite[55].dlkDSL.mac "Repetition Generation Delay for Node 463 at Satellite" ETV
vector 526 Florasat.satellite[55].dlkDSL.mac "Message Generation Delay for Node 463 at Satellite" ETV
vector 527 Florasat.station[19].dlk.mac "Sending Delay for Node 463" ETV
vector 528 Florasat.station[19].dlk.mac "Generation Delay for Node 463" ETV
vector 529 Florasat.satellite[54].dlkDSL.mac "All Nodes Message Generation Delay at Satellite" ETV
vector 530 Florasat.satellite[54].dlkDSL.mac "Message Generation Delay for Node 421 at Satellite" ETV
vector 531 Florasat.satellite[31].dlkDSL.mac "Satellite Position when Repetition Received" ETV
vector 532 Florasat.satellite[31].dlkDSL.mac "Repetition Position for Node 519 at Satellite" ETV
vector 533 Florasat.satellite[31].dlkDSL.mac "All Nodes Repetition Generation Delay at Satellite" ETV
vector 534 Florasat.satellite[31].dlkDSL.mac "Repetition Generation Delay for Node 519 at Satellite" ETV
vector 535 Florasat.satellite[31].dlkDSL.mac "All Nodes Message Generation Delay at Satellite" ETV
vector 536 Florasat.satellite[31].dlkDSL.mac "Message Generation Delay for Node 519 at Satellite" ETV
vector 537 Florasat.station[17].dlk.mac "Sending Delay for Node 519" ETV
vector 538 Florasat.station[17].dlk.mac "Generation Delay for Node 519" ETV
vector 539 Florasat.satellite[54].dlkDSL.mac "Repetition Position for Node 365 at Satellite" ETV
vector 540 Florasat.satellite[54].dlkDSL.mac "Repetition Generation Delay for Node 365 at Satellite" ETV
vector 541 Florasat.satellite[54].dlkDSL.mac "Message Generation Delay for Node 365 at Satellite" ETV
vector 542 Florasat.station[15].dlk.mac "Sending Delay for Node 365" ETV
vector 543 Florasat.station[15].dlk.mac "Generation Delay for Node 365" ETV
vector 544 Florasat.satellite[52].dlkDSL.mac "Satellite Position when Repetition Received" ETV
vector 545 Florasat.satellite[52].dlkDSL.mac "Repetition Position for Node 295 at Satellite" ETV
vector 546 Florasat.satellite[52].dlkDSL.mac "All Nodes Repetition Generation Delay at Satellite" ETV
vector 547 Florasat.satellite[52].dlkDSL.mac "Repetition Generation Delay for Node 295 at Satellite" ETV
vector 548 Florasat.satellite[52].dlkDSL.mac "All Nodes Message Generation Delay at Satellite" ETV
vector 549 Florasat.satellite[52].dlkDSL.mac "Message Generation Delay for Node 295 at Satellite" ETV
vector 550 Florasat.satellite[62].dlkDSL.mac "Duplication Position for Node 295 at Satellite" ETV
vector 551 Florasat.satellite[42].dlkDSL.mac "Satellite Position when Duplication Received" ETV
vector 552 Florasat.satellite[42].dlkDSL.mac "Duplication Position for Node 295 at Satellite" ETV
vector 553 Florasat.satellite[46].dlkDSL.mac "All Nodes Message Generation Delay at Satellite" ETV
vector 554 Florasat.satellite[46].dlkDSL.mac "Message Generation Delay for Node 477 at Satellite" ETV
vector 555 Florasat.satellite[45].dlkDSL.mac "Duplication Position for Node 477 at Satellite" ETV
vector 556 Florasat.satellite[54].dlkDSL.mac "Repetition Position for Node 407 at Satellite" ETV
vector 557 Florasat.satellite[54].dlkDSL.mac "Repetition Generation Delay for Node 407 at Satellite" ETV
vector 558 Florasat.satellite[54].dlkDSL.mac "Message Generation Delay for Node 407 at Satellite" ETV
vector 559 Florasat.satellite[64].dlkDSL.mac "Duplication Position for Node 407 at Satellite" ETV
vector 560 Florasat.satellite[13].dlkDSL.mac "All Nodes Message Generation Delay at Satellite" ETV
vector 561 Florasat.satellite[13].dlkDSL.mac "Message Generation Delay for Node 141 at Satellite" ETV
vector 562 Florasat.station[13].dlk.mac "Sending Delay for Node 141" ETV
vector 563 Florasat.station[13].dlk.mac "Generation Delay for Node 141" ETV
vector 564 Florasat.satellite[54].dlkDSL.mac "Repetition Position for Node 435 at Satellite" ETV
vector 565 Florasat.satellite[54].dlkDSL.mac "Repetition Generation Delay for Node 435 at Satellite" ETV
vector 566 Florasat.satellite[54].dlkDSL.mac "Message Generation Delay for Node 435 at Satellite" ETV
vector 567 Florasat.station[19].dlk.mac "Sending Delay for Node 435" ETV
vector 568 Florasat.station[19].dlk.mac "Generation Delay for Node 435" ETV
vector 569 Florasat.satellite[3].dlkDSL.mac "Repetition Position for Node 155 at Satellite" ETV
vector 570 Florasat.satellite[3].dlkDSL.mac "Repetition Generation Delay for Node 155 at Satellite" ETV
vector 571 Florasat.satellite[3].dlkDSL.mac "Message Generation Delay for Node 155 at Satellite" ETV
vector 572 Florasat.satellite[61].dlkDSL.mac "Satellite Position when Duplication Received" ETV
vector 573 Florasat.satellite[61].dlkDSL.mac "Duplication Position for Node 155 at Satellite" ETV
vector 574 Florasat.satellite[60].net.packetHandler "packets received" ETV
vector 575 Florasat.satellite[60].net.packetHandler "packets forwarded" ETV
vector 576 Florasat.satellite[39].dlkDSL.mac "All Nodes Message Generation Delay at Satellite" ETV
vector 577 Florasat.satellite[39].dlkDSL.mac "Message Generation Delay for Node 547 at Satellite" ETV
vector 578 Florasat.satellite[49].dlkDSL.mac "Satellite Position when Duplication Received" ETV
vector 579 Florasat.satellite[49].dlkDSL.mac "Duplication Position for Node 547 at Satellite" ETV
vector 580 Florasat.satellite[54].dlkDSL.mac "Repetition Position for Node 337 at Satellite" ETV
vector 581 Florasat.satellite[54].dlkDSL.mac "Repetition Generation Delay for Node 337 at Satellite" ETV
vector 582 Florasat.satellite[54].dlkDSL.mac "Message Generation Delay for Node 337 at Satellite" ETV
vector 583 Florasat.satellite[64].dlkDSL.mac "Duplication Position for Node 337 at Satellite" ETV
vector 584 Florasat.satellite[15].dlkDSL.mac "Repetition Position for Node 225 at Satellite" ETV
vector 585 Florasat.satellite[15].dlkDSL.mac "Repetition Generation Delay for Node 225 at Satellite" ETV
vector 586 Florasat.satellite[15].dlkDSL.mac "Message Generation Delay for Node 225 at Satellite" ETV
vector 587 Florasat.satellite[25].dlkDSL.mac "Satellite Position when Duplication Received" ETV
vector 588 Florasat.satellite[25].dlkDSL.mac "Duplication Position for Node 225 at Satellite" ETV
vector 589 Florasat.satellite[25].dlkDSL.mac "Satellite Position when Repetition Received" ETV
vector 590 Florasat.satellite[25].dlkDSL.mac "Repetition Position for Node 239 at Satellite" ETV
vector 591 Florasat.satellite[25].dlkDSL.mac "All Nodes Repetition Generation Delay at Satellite" ETV
vector 592 Florasat.satellite[25].dlkDSL.mac "Repetition Generation Delay for Node 239 at Satellite" ETV
vector 593 Florasat.satellite[25].dlkDSL.mac "All Nodes Message Generation Delay at Satellite" ETV
vector 594 Florasat.satellite[25].dlkDSL.mac "Message Generation Delay for Node 239 at Satellite" ETV
vector 595 Florasat.station[13].dlk.mac "Sending Delay for Node 239" ETV
vector 596 Florasat.station[13].dlk.mac "Generation Delay for Node 239" ETV
vector 597 Florasat.satellite[54].dlkDSL.mac "Repetition Position for Node 309 at Satellite" ETV
vector 598 Florasat.satellite[54].dlkDSL.mac "Repetition Generation Delay for Node 309 at Satellite" ETV
vector 599 Florasat.satellite[54].dlkDSL.mac "Message Generation Delay for Node 309 at Satellite" ETV
vector 600 Florasat.satellite[33].dlkDSL.mac "Duplication Position for Node 309 at Satellite" ETV
vector 601 Florasat.station[15].dlk.mac "Sending Delay for Node 309" ETV
vector 602 Florasat.station[15].dlk.mac "Generation Delay for Node 309" ETV
vector 603 Florasat.satellite[54].dlkDSL.mac "Repetition Position for Node 379 at Satellite" ETV
vector 604 Florasat.satellite[54].dlkDSL.mac "Repetition Generation Delay for Node 379 at Satellite" ETV
vector 605 Florasat.satellite[54].dlkDSL.mac "Message Generation Delay for Node 379 at Satellite" ETV
vector 606 Florasat.satellite[15].dlkDSL.mac "Repetition Position for Node 253 at Satellite" ETV
vector 607 Florasat.satellite[15].dlkDSL.mac "Repetition Generation Delay for Node 253 at Satellite" ETV
vector 608 Florasat.satellite[15].dlkDSL.mac "Message Generation Delay for Node 253 at Satellite" ETV
vector 609 Florasat.satellite[54].dlkDSL.mac "Repetition Position for Node 323 at Satellite" ETV
vector 610 Florasat.satellite[54].dlkDSL.mac "Repetition Generation Delay for Node 323 at Satellite" ETV
vector 611 Florasat.satellite[54].dlkDSL.mac "Message Generation Delay for Node 323 at Satellite" ETV
vector 612 Florasat.satellite[33].dlkDSL.mac "Duplication Position for Node 323 at Satellite" ETV
vector 613 Florasat.station[15].dlk.mac "Sending Delay for Node 323" ETV
vector 614 Florasat.station[15].dlk.mac "Generation Delay for Node 323" ETV
vector 615 Florasat.satellite[65].dlkDSL.mac "Repetition Position for Node 449 at Satellite" ETV
vector 616 Florasat.satellite[65].dlkDSL.mac "Repetition Generation Delay for Node 449 at Satellite" ETV
vector 617 Florasat.satellite[65].dlkDSL.mac "All Nodes Message Generation Delay at Satellite" ETV
vector 618 Florasat.satellite[65].dlkDSL.mac "Message Generation Delay for Node 449 at Satellite" ETV
vector 619 Florasat.satellite[14].dlkDSL.mac "Repetition Position for Node 197 at Satellite" ETV
vector 620 Florasat.satellite[14].dlkDSL.mac "Repetition Generation Delay for Node 197 at Satellite" ETV
vector 621 Florasat.satellite[14].dlkDSL.mac "Message Generation Delay for Node 197 at Satellite" ETV
vector 622 Florasat.satellite[54].dlkDSL.mac "Message Generation Delay for Node 393 at Satellite" ETV
vector 623 Florasat.satellite[33].dlkDSL.mac "Repetition Position for Node 351 at Satellite" ETV
vector 624 Florasat.satellite[33].dlkDSL.mac "Repetition Generation Delay for Node 351 at Satellite" ETV
vector 625 Florasat.satellite[33].dlkDSL.mac "All Nodes Message Generation Delay at Satellite" ETV
vector 626 Florasat.satellite[33].dlkDSL.mac "Message Generation Delay for Node 351 at Satellite" ETV
vector 627 Florasat.satellite[54].dlkDSL.mac "Duplication Position for Node 351 at Satellite" ETV
vector 628 Florasat.station[15].dlk.mac "Sending Delay for Node 351" ETV
vector 629 Florasat.station[15].dlk.mac "Generation Delay for Node 351" ETV
vector 630 Florasat.satellite[64].dlkDSL.mac "Repetition Position for Node 491 at Satellite" ETV
vector 631 Florasat.satellite[64].dlkDSL.mac "Repetition Generation Delay for Node 491 at Satellite" ETV
vector 632 Florasat.satellite[64].dlkDSL.mac "Message Generation Delay for Node 491 at Satellite" ETV
vector 633 Florasat.satellite[54].dlkDSL.mac "Duplication Position for Node 491 at Satellite" ETV
vector 634 Florasat.station[19].dlk.mac "Sending Delay for Node 491" ETV
vector 635 Florasat.station[19].dlk.mac "Generation Delay for Node 491" ETV
vector 636 Florasat.satellite[14].dlkDSL.mac "Repetition Position for Node 211 at Satellite" ETV
vector 637 Florasat.satellite[14].dlkDSL.mac "Repetition Generation Delay for Node 211 at Satellite" ETV
vector 638 Florasat.satellite[14].dlkDSL.mac "Message Generation Delay for Node 211 at Satellite" ETV
vector 639 Florasat.satellite[13].dlkDSL.mac "Message Generation Delay for Node 169 at Satellite" ETV
vector 640 Florasat.satellite[12].dlkDSL.mac "Satellite Position when Duplication Received" ETV
vector 641 Florasat.satellite[12].dlkDSL.mac "Duplication Position for Node 169 at Satellite" ETV
vector 642 Florasat.station[2].dlk.mac "Sending Delay for Node 169" ETV
vector 643 Florasat.station[2].dlk.mac "Generation Delay for Node 169" ETV
vector 644 Florasat.satellite[21].dlkDSL.mac "All Nodes Message Generation Delay at Satellite" ETV
vector 645 Florasat.satellite[21].dlkDSL.mac "Message Generation Delay for Node 505 at Satellite" ETV
vector 646 Florasat.satellite[31].dlkDSL.mac "Duplication Position for Node 505 at Satellite" ETV
vector 647 Florasat.satellite[39].dlkDSL.mac "Repetition Position for Node 533 at Satellite" ETV
vector 648 Florasat.satellite[39].dlkDSL.mac "Repetition Generation Delay for Node 533 at Satellite" ETV
vector 649 Florasat.satellite[39].dlkDSL.mac "Message Generation Delay for Node 533 at Satellite" ETV
vector 650 Florasat.satellite[45].dlkDSL.mac "Repetition Position for Node 477 at Satellite" ETV
vector 651 Florasat.satellite[45].dlkDSL.mac "Repetition Generation Delay for Node 477 at Satellite" ETV
vector 652 Florasat.satellite[12].dlkDSL.mac "Duplication Position for Node 141 at Satellite" ETV
vector 653 Florasat.satellite[64].dlkDSL.mac "Duplication Position for Node 435 at Satellite" ETV
vector 654 Florasat.satellite[53].dlkDSL.mac "Repetition Position for Node 421 at Satellite" ETV
vector 655 Florasat.satellite[53].dlkDSL.mac "Repetition Generation Delay for Node 421 at Satellite" ETV
vector 656 Florasat.satellite[54].dlkDSL.mac "Duplication Position for Node 421 at Satellite" ETV
vector 657 Florasat.satellite[43].dlkDSL.mac "Duplication Position for Node 421 at Satellite" ETV
vector 658 Florasat.satellite[25].dlkDSL.mac "Repetition Position for Node 225 at Satellite" ETV
vector 659 Florasat.satellite[25].dlkDSL.mac "Repetition Generation Delay for Node 225 at Satellite" ETV
vector 660 Florasat.satellite[15].dlkDSL.mac "Duplication Position for Node 225 at Satellite" ETV
vector 661 Florasat.satellite[49].dlkDSL.mac "Satellite Position when Repetition Received" ETV
vector 662 Florasat.satellite[49].dlkDSL.mac "Repetition Position for Node 547 at Satellite" ETV
vector 663 Florasat.satellite[49].dlkDSL.mac "All Nodes Repetition Generation Delay at Satellite" ETV
vector 664 Florasat.satellite[49].dlkDSL.mac "Repetition Generation Delay for Node 547 at Satellite" ETV
vector 665 Florasat.satellite[61].dlkDSL.mac "Satellite Position when Repetition Received" ETV
vector 666 Florasat.satellite[61].dlkDSL.mac "Repetition Position for Node 155 at Satellite" ETV
vector 667 Florasat.satellite[61].dlkDSL.mac "All Nodes Repetition Generation Delay at Satellite" ETV
vector 668 Florasat.satellite[61].dlkDSL.mac "Repetition Generation Delay for Node 155 at Satellite" ETV
vector 669 Florasat.satellite[3].dlkDSL.mac "Duplication Position for Node 155 at Satellite" ETV
vector 670 Florasat.satellite[12].dlkDSL.mac "Satellite Position when Repetition Received" ETV
vector 671 Florasat.satellite[12].dlkDSL.mac "Repetition Position for Node 169 at Satellite" ETV
vector 672 Florasat.satellite[12].dlkDSL.mac "All Nodes Repetition Generation Delay at Satellite" ETV
vector 673 Florasat.satellite[12].dlkDSL.mac "Repetition Generation Delay for Node 169 at Satellite" ETV
vector 674 Florasat.satellite[28].dlkDSL.mac "Satellite Position when Repetition Received" ETV
vector 675 Florasat.satellite[28].dlkDSL.mac "Repetition Position for Node 533 at Satellite" ETV
vector 676 Florasat.satellite[28].dlkDSL.mac "All Nodes Repetition Generation Delay at Satellite" ETV
vector 677 Florasat.satellite[28].dlkDSL.mac "Repetition Generation Delay for Node 533 at Satellite" ETV
vector 678 Florasat.satellite[53].dlkDSL.mac "Repetition Position for Node 393 at Satellite" ETV
vector 679 Florasat.satellite[53].dlkDSL.mac "Repetition Generation Delay for Node 393 at Satellite" ETV
vector 680 Florasat.satellite[20].dlkDSL.mac "Satellite Position when Duplication Received" ETV
vector 681 Florasat.satellite[20].dlkDSL.mac "Duplication Position for Node 505 at Satellite" ETV
vector 682 Florasat.satellite[19].net.packetHandler "packets received" ETV
vector 683 Florasat.satellite[19].net.packetHandler "packets forwarded" ETV
vector 684 Florasat.satellite[30].dlkDSL.mac "Repetition Position for Node 519 at Satellite" ETV
vector 685 Florasat.satellite[30].dlkDSL.mac "Repetition Generation Delay for Node 519 at Satellite" ETV
vector 686 Florasat.satellite[65].dlkDSL.mac "Repetition Position for Node 463 at Satellite" ETV
vector 687 Florasat.satellite[65].dlkDSL.mac "Repetition Generation Delay for Node 463 at Satellite" ETV
vector 688 Florasat.satellite[12].dlkDSL.mac "Repetition Position for Node 141 at Satellite" ETV
vector 689 Florasat.satellite[12].dlkDSL.mac "Repetition Generation Delay for Node 141 at Satellite" ETV
vector 690 Florasat.satellite[13].dlkDSL.mac "Repetition Position for Node 281 at Satellite" ETV
vector 691 Florasat.satellite[13].dlkDSL.mac "Repetition Generation Delay for Node 281 at Satellite" ETV
vector 692 Florasat.satellite[63].dlkDSL.mac "Duplication Position for Node 421 at Satellite" ETV
vector 693 Florasat.satellite[62].dlkDSL.mac "Repetition Position for Node 295 at Satellite" ETV
vector 694 Florasat.satellite[62].dlkDSL.mac "Repetition Generation Delay for Node 295 at Satellite" ETV
vector 695 Florasat.satellite[51].dlkDSL.mac "Satellite Position when Duplication Received" ETV
vector 696 Florasat.satellite[51].dlkDSL.mac "Duplication Position for Node 295 at Satellite" ETV
vector 697 Florasat.satellite[52].dlkDSL.mac "Satellite Position when Duplication Received" ETV
vector 698 Florasat.satellite[52].dlkDSL.mac "Duplication Position for Node 295 at Satellite" ETV
vector 699 Florasat.satellite[38].dlkDSL.mac "Satellite Position when Repetition Received" ETV
vector 700 Florasat.satellite[38].dlkDSL.mac "Repetition Position for Node 547 at Satellite" ETV
vector 701 Florasat.satellite[38].dlkDSL.mac "All Nodes Repetition Generation Delay at Satellite" ETV
vector 702 Florasat.satellite[38].dlkDSL.mac "Repetition Generation Delay for Node 547 at Satellite" ETV
vector 703 Florasat.satellite[53].dlkDSL.mac "Repetition Position for Node 379 at Satellite" ETV
vector 704 Florasat.satellite[53].dlkDSL.mac "Repetition Generation Delay for Node 379 at Satellite" ETV
vector 705 Florasat.satellite[54].dlkDSL.mac "Duplication Position for Node 379 at Satellite" ETV
vector 706 Florasat.satellite[43].dlkDSL.mac "Duplication Position for Node 379 at Satellite" ETV
vector 707 Florasat.satellite[2].dlkDSL.mac "Satellite Position when Duplication Received" ETV
vector 708 Florasat.satellite[2].dlkDSL.mac "Duplication Position for Node 155 at Satellite" ETV
vector 709 Florasat.satellite[43].dlkDSL.mac "Duplication Position for Node 309 at Satellite" ETV
vector 710 Florasat.satellite[53].dlkDSL.mac "Duplication Position for Node 309 at Satellite" ETV
vector 711 Florasat.satellite[53].dlkDSL.mac "Duplication Position for Node 337 at Satellite" ETV
vector 712 Florasat.satellite[24].dlkDSL.mac "Satellite Position when Repetition Received" ETV
vector 713 Florasat.satellite[24].dlkDSL.mac "Repetition Position for Node 239 at Satellite" ETV
vector 714 Florasat.satellite[24].dlkDSL.mac "All Nodes Repetition Generation Delay at Satellite" ETV
vector 715 Florasat.satellite[24].dlkDSL.mac "Repetition Generation Delay for Node 239 at Satellite" ETV
vector 716 Florasat.satellite[25].dlkDSL.mac "Duplication Position for Node 239 at Satellite" ETV
vector 717 Florasat.satellite[13].dlkDSL.mac "Repetition Position for Node 197 at Satellite" ETV
vector 718 Florasat.satellite[13].dlkDSL.mac "Repetition Generation Delay for Node 197 at Satellite" ETV
vector 719 Florasat.satellite[43].dlkDSL.mac "Duplication Position for Node 323 at Satellite" ETV
vector 720 Florasat.satellite[63].dlkDSL.mac "Duplication Position for Node 491 at Satellite" ETV
vector 721 Florasat.satellite[64].dlkDSL.mac "Repetition Position for Node 449 at Satellite" ETV
vector 722 Florasat.satellite[64].dlkDSL.mac "Repetition Generation Delay for Node 449 at Satellite" ETV
vector 723 Florasat.satellite[54].dlkDSL.mac "Duplication Position for Node 449 at Satellite" ETV
vector 724 Florasat.satellite[54].dlkDSL.mac "Repetition Position for Node 351 at Satellite" ETV
vector 725 Florasat.satellite[54].dlkDSL.mac "Repetition Generation Delay for Node 351 at Satellite" ETV
vector 726 Florasat.satellite[33].dlkDSL.mac "Duplication Position for Node 351 at Satellite" ETV
[...]
1782	791950 87 33045 34543 5040.64351469279 5424.51159331396 2 4789.6435146928 5123.511593314 9913.1551080067 49191056.044661
1783	792037 105 33222 35072 5068.74155282755 5496.41243343492 3 -46646 -20645 -93936 3312021366
1784	792142 132 33222 35072 5068.74155282755 5496.41243343492 3 4817.7415528275 5195.4124334349 15113.763874572 76219165.25605
1785	792274 44 34361 34361 5401.60988830929 5401.60988830929 1 5100.6098883093 5100.6098883093 5100.6098883093 26016221.232719
1786	792318 102 34376 36012 5403.98666588737 5606.29580797769 3 36203 48203 126609 5415279627
1787	792420 132 34376 36012 5403.98666588737 5606.29580797769 3 5102.9866658874 5305.2958079777 15617.053930554 81317936.61039
1788	792552 44 34376 34376 5403.98666588737 5403.98666588737 1 5102.9866658874 5102.9866658874 5102.9866658874 26040472.912224
1789	792596 34 34379 34379 5403.99005552413 5403.99005552413 1 43173 43173 43173 1863907929
1790	792630 68 34398 35250 5405.63031601259 5514.21897004276 2 42203 48203 90406 4104622418
1791	792698 88 34398 35250 5405.63031601259 5514.21897004276 2 5104.6303160126 5213.2189700428 10317.849286055 53234902.692768
1792	792786 44 34398 34398 5405.63031601259 5405.63031601259 1 5104.6303160126 5104.6303160126 5104.6303160126 26057250.663155
1793	792830 43 34418 34418 5407.9586634614 5407.9586634614 1 5106.9586634614 5106.9586634614 5106.9586634614 26081026.790303
1794	792873 43 34432 34432 5410.38674792598 5410.38674792598 1 5109.386747926 5109.386747926 5109.386747926 26105832.939882
1795	792916 68 34446 35342 5411.06017400222 5517.80041457481 2 42203 48203 90406 4104622418
1796	792984 88 34446 35342 5411.06017400222 5517.80041457481 2 5110.0601740022 5216.8004145748 10326.860588577 53327721.547431
1797	793072 44 34446 34446 5411.06017400222 5411.06017400222 1 5110.0601740022 5110.0601740022 5110.0601740022 26112714.981924
1798	793116 33 34449 34449 5411.0606594097 5411.0606594097 1 43173 43173 43173 1863907929
1799	793149 135 34474 36964 5419.88176693894 5730.32927665434 4 29203 47203 153812 6101282836
1800	793284 173 34474 36964 5419.88176693894 5730.32927665434 4 5118.8817669389 5429.3292766543 21090.159218557 111252374.9586
1801	793457 44 34474 34474 5419.88176693894 5419.88176693894 1 5118.8817669389 5118.8817669389 5118.8817669389 26202950.5439
1802	793501 68 34477 35385 5419.88348004092 5519.66836515385 2 36174 42173 78347 3087120205
1803	793569 102 34494 36140 5420.68801500503 5624.19777553153 3 30174 42173 108521 3997590481
1804	793671 131 34494 36140 5420.68801500503 5624.19777553153 3 5119.688015005 5323.1977755315 15660.153108856 81767518.199213
1805	793802 43 34494 34494 5420.68801500503 5420.68801500503 1 5119.688015005 5119.688015005 5119.688015005 26211205.370986
1806	793845 44 34511 34511 5422.29121654111 5422.29121654111 1 5121.2912165411 5121.2912165411 5121.2912165411 26227623.724621
1807	793889 68 34518 35316 5422.62086706964 5515.69453272478 2 36174 42173 78347 3087120205
1808	793957 88 34518 35316 5422.62086706964 5515.69453272478 2 5121.6208670696 5214.6945327248 10336.315399794 53424039.375633
1809	794045 44 34518 34518 5422.62086706964 5422.62086706964 1 5121.6208670696 5121.6208670696 5121.6208670696 26231000.306003
1810	794089 68 34521 35319 5422.62228316785 5515.69526140186 2 42203 47203 89406 4009216418
1811	794157 43 34543 34543 5424.51159331396 5424.51159331396 1 5123.511593314 5123.511593314 5123.511593314 26250371.046823
1812	794200 42 34549 34549 5424.56070642821 5424.56070642821 1 0.65520442552 0.65520442552 0.65520442552 0.42929283922099
1813	794242 44 34549 34549 5424.56070642821 5424.56070642821 1 5123.5607064282 5123.5607064282 5123.5607064282 26250874.312455
1814	794286 44 34552 34552 5424.71697494045 5424.71697494045 1 5123.7169749404 5123.7169749404 5123.7169749404 26252475.639293
1815	794330 102 34555 36919 5424.71838539736 5726.89483055122 3 56170 74164 198501 13302107685
1816	794432 105 34584 36181 5429.73953351071 5628.88614003698 3 -46880 -34881 -122642 5085674722
1817	794537 131 34584 36181 5429.73953351071 5628.88614003698 3 5128.7395335107 5327.886140037 15676.171428297 81933997.809713
1818	794668 44 34584 34584 5429.73953351071 5429.73953351071 1 5128.7395335107 5128.7395335107 5128.7395335107 26303969.202596
1819	794712 70 34587 35406 5429.74199138689 5520.54837513094 2 -45910 -40910 -86820 3781356200
1820	794782 44 34597 34597 5429.96365159769 5429.96365159769 1 5128.9636515977 5128.9636515977 5128.9636515977 26306268.13941
1821	794826 67 34600 35428 5429.96516618071 5522.1599493139 2 62243 68245 130488 8531571074
1822	794893 44 34627 34627 5431.86041764835 5431.86041764835 1 5130.8604176483 5130.8604176483 5130.8604176483 26325728.625391
1823	794937 44 34627 34627 5431.86041764835 5431.86041764835 1 5130.8604176483 5130.8604176483 5130.8604176483 26325728.625391
1824	794981 69 34647 35504 5435.42893341909 5535.3328838837 2 -35851 -29851 -65702 2176376402
1825	795050 87 34647 35504 5435.42893341909 5535.3328838837 2 5134.4289334191 5234.3328838837 10368.761817303 53760601.211637
1826	795137 44 34647 34647 5435.42893341909 5435.42893341909 1 5134.4289334191 5134.4289334191 5134.4289334191 26362360.472331
1827	795181 44 34647 34647 5435.42893341909 5435.42893341909 1 5134.4289334191 5134.4289334191 5134.4289334191 26362360.472331
1828	795225 35 34650 34650 5435.42951638024 5435.42951638024 1 -34881 -34881 -34881 1216684161
1829	795260 68 34660 35455 5435.55503788914 5526.26912430325 2 -7883 -2883 -10766 70453378
1830	795328 88 34660 35455 5435.55503788914 5526.26912430325 2 5134.5550378891 5225.2691243032 10359.824162192 53667092.85851
1831	795416 44 34660 34660 5435.55503788914 5435.55503788914 1 5134.5550378891 5134.5550378891 5134.5550378891 26363655.437113
1832	795460 138 34672 37024 5436.58315230233 5734.98530193232 4 -20883 -2883 -47532 744822756
1833	795598 176 34672 37024 5436.58315230233 5734.98530193232 4 5135.5831523023 5433.9853019323 21152.300047168 111903882.91365
1834	795774 44 34672 34672 5436.58315230233 5436.58315230233 1 5135.5831523023 5135.5831523023 5135.5831523023 26374214.314212
1835	795818 104 34675 36254 5436.58316785322 5639.10242464377 3 -19913 -7913 -42739 681540707
1836	795922 42 34680 34680 5436.60468283133 5436.60468283133 1 0.62829034054 0.62829034054 0.62829034054 0.39474875201587
1837	795964 44 34680 34680 5436.60468283133 5436.60468283133 1 5135.6046828313 5135.6046828313 5135.6046828313 26374435.458319
1838	796008 33 34695 34695 5440.2809021963 5440.2809021963 1 -7913 -7913 -7913 62615569
1839	796041 43 34695 34695 5440.2809021963 5440.2809021963 1 5139.2809021963 5139.2809021963 5139.2809021963 26412208.19168
1840	796084 43 34695 34695 5440.2809021963 5440.2809021963 1 5139.2809021963 5139.2809021963 5139.2809021963 26412208.19168
1841	796127 34 34698 34698 5440.28095223922 5440.28095223922 1 -2883 -2883 -2883 8311689
1842	796161 42 34703 34703 5440.30261377351 5440.30261377351 1 0.62852934574 0.62852934574 0.62852934574 0.39504913845635
1843	796203 44 34703 34703 5440.30261377351 5440.30261377351 1 5139.3026137735 5139.3026137735 5139.3026137735 26412431.355939
1844	796247 68 34717 35621 5442.54533191723 5550.53155445504 2 68036 75039 143075 10259748817
1845	796315 87 34717 35621 5442.54533191723 5550.53155445504 2 5141.5453319172 5249.531554455 10391.076886372 53993069.941379
1846	796402 44 34717 34717 5442.54533191723 5442.54533191723 1 5141.5453319172 5141.5453319172 5141.5453319172 26435488.40016
1847	796446 34 34720 34720 5442.54772378879 5442.54772378879 1 52052 52052 52052 2709410704
1848	796480 34 34720 34720 5442.54772378879 5442.54772378879 1 52052 52052 52052 2709410704
1849	796514 34 34723 34723 5442.54782897309 5442.54782897309 1 74009 74009 74009 5477332081
1850	796548 209 34764 38845 5444.76025539085 5963.6925743478 6 -50791 -19792 -209751 7993382001
1851	796757 262 34764 38845 5444.76025539085 5963.6925743478 6 5143.7602553909 5662.6925743478 32421.887460535 175381857.17941
1852	797019 44 34764 34764 5444.76025539085 5444.76025539085 1 5143.7602553909 5143.7602553909 5143.7602553909 26458269.564939
1853	797063 34 34773 34773 5445.29810826017 5445.29810826017 1 57081 57081 57081 3258240561
1854	797097 44 34773 34773 5445.29810826017 5445.29810826017 1 5144.2981082602 5144.2981082602 5144.2981082602 26463803.026649
1855	797141 44 34773 34773 5445.29810826017 5445.29810826017 1 5144.2981082602 5144.2981082602 5144.2981082602 26463803.026649
1856	797185 34 34776 34776 5445.29815874735 5445.29815874735 1 62110 62110 62110 3857652100
1857	797219 44 34800 34800 5446.15164824543 5446.15164824543 1 5145.1516482454 5145.1516482454 5145.1516482454 26472585.483443
1858	797263 44 34807 34807 5446.18489805108 5446.18489805108 1 5145.1848980511 5145.1848980511 5145.1848980511 26472927.635133
1859	797307 169 34917 38004 5452.88764335503 5853.16426605789 5 -10794 13206 6030 367272180
1860	797476 218 34917 38004 5452.88764335503 5853.16426605789 5 5151.887643355 5552.1642660579 26757.956273809 143297982.69653
1861	797694 43 34917 34917 5452.88764335503 5452.88764335503 1 5151.887643355 5151.887643355 5151.887643355 26541946.289754
1862	797737 135 34942 37091 5456.00287090063 5746.64965352888 4 6085 23085 59340 1043058900
1863	797872 176 34942 37091 5456.00287090063 5746.64965352888 4 5155.0028709006 5445.6496535289 21195.763800526 112362241.10786
1864	798048 44 34942 34942 5456.00287090063 5456.00287090063 1 5155.0028709006 5155.0028709006 5155.0028709006 26574054.598994
1865	798092 43 34958 34958 5457.06810243503 5457.06810243503 1 5156.068102435 5156.068102435 5156.068102435 26585038.276948
1866	798135 34 34961 34961 5457.06985879221 5457.06985879221 1 45203 45203 45203 2043311209
1867	798169 104 34969 36481 5457.09482890721 5656.7510206503 3 -48880 -36881 -127642 5503480722
1868	798273 131 34969 36481 5457.09482890721 5656.7510206503 3 5156.0948289072 5355.7510206503 15762.226023368 82835874.849425
1869	798404 44 34969 34969 5457.09482890721 5457.09482890721 1 5156.0948289072 5156.0948289072 5156.0948289072 26585313.884684
1870	798448 44 34989 34989 5460.87141418835 5460.87141418835 1 5159.8714141883 5159.8714141883 5159.8714141883 26624273.010958
1871	798492 33 34992 34992 5460.8716626806 5460.8716626806 1 45203 45203 45203 2043311209
1872	798525 136 35007 37243 5461.57730997031 5754.47690149653 4 27203 45203 144812 5422628836
1873	798661 176 35007 37243 5461.57730997031 5754.47690149653 4 5160.5773099703 5453.4769014965 21223.019163725 112651956.26618
1874	798837 44 35007 35007 5461.57730997031 5461.57730997031 1 5160.5773099703 5160.5773099703 5160.5773099703 26631558.17218
1875	798881 35 35075 35075 5496.41384354004 5496.41384354004 1 -53649 -53649 -53649 2878215201
1876	798916 34 35189 35189 5501.41571347621 5501.41571347621 1 59110 59110 59110 3493992100
1877	798950 34 35234 35234 5512.31194350771 5512.31194350771 1 23298 23298 23298 542796804
1878	798984 136 35264 38310 5514.92297392734 5914.14411082176 4 51200 74194 243793 15153345237
1879	799120 176 35264 38310 5514.92297392734 5914.14411082176 4 5213.9229739273 5613.1441108218 21768.466439487 118553650.9019
1880	799296 67 35267 36900 5514.92339759284 5726.0885717833 2 56170 69167 125337 7939142789
1881	799363 34 35270 35270 5514.92421765299 5514.92421765299 1 42203 42203 42203 1781093209
1882	799397 68 35346 38417 5517.80152234702 5922.46473147903 2 45171 69167 114338 6824493130
1883	799465 168 35375 38445 5519.26626859084 5924.97600444948 5 23053 47052 175264 6503469940
1884	799633 217 35375 38445 5519.26626859084 5924.97600444948 5 5218.2662685908 5623.9760044495 27103.163430732 147018214.39765
1885	799850 136 35476 38544 5533.90965231215 5932.90865383828 4 50200 73194 241793 14904557237
1886	799986 176 35476 38544 5533.90965231215 5932.90865383828 4 5232.9096523121 5631.9086538383 21815.706417475 119067624.57153
1887	800162 34 35512 35512 5535.72692080853 5535.72692080853 1 -8883 -8883 -8883 78907689
1888	800196 44 35512 35512 5535.72692080853 5535.72692080853 1 5234.7269208085 5234.7269208085 5234.7269208085 27402365.935438
1889	800240 33 35528 35528 5536.5569717255 5536.5569717255 1 19327 19327 19327 373532929
1890	800273 175 35551 38556 5540.23863141469 5933.53138953955 5 -45677 -21677 -170385 6155409645
1891	800448 175 35551 38556 5540.23863141469 5933.53138953955 5 -45677 -21677 -170385 6155409645
1892	800623 220 35551 38556 5540.23863141469 5933.53138953955 5 5239.2386314147 5632.5313895395 27160.474118755 147633655.26796
1893	800843 220 35551 38556 5540.23863141469 5933.53138953955 5 5239.2386314147 5632.5313895395 27160.474118755 147633655.26796
1894	801063 166 35564 38617 5541.1435625942 5942.60442028444 5 115 24115 60575 1093866125
1895	801229 219 35564 38617 5541.1435625942 5942.60442028444 5 5240.1435625942 5641.6044202844 27185.184883612 147906899.37521
1896	801448 136 35624 38868 5550.53260836803 5964.82221938166 4 53050 77040 254186 16467360710
1897	801584 68 35627 36314 5550.53321466577 5647.41872369793 2 42029 48030 90059 4073317741
1898	801652 169 35753 38653 5551.89769497829 5947.73527996327 5 32112 56111 222558 10279576274
1899	801821 219 35753 38653 5551.89769497829 5947.73527996327 5 5250.8976949783 5646.7352799633 27222.678892268 148313840.54716
1900	802040 101 35756 37063 5551.8985638407 5739.89432821727 3 39082 50082 134246 6067996172
1901	802141 105 35774 37225 5552.77934792717 5752.59379170302 3 -42821 -31822 -112464 4276705766
1902	802246 135 35837 38767 5563.43030830615 5953.07332855035 4 16203 39203 103812 2988982836
1903	802381 175 35837 38767 5563.43030830615 5953.07332855035 4 5262.4303083061 5652.0733285503 21930.116173335 120315736.90133
1904	802556 139 35898 38150 5596.1806662443 5884.31998888567 4 -47648 -30647 -157590 6371425026
1905	802695 175 35898 38150 5596.1806662443 5884.31998888567 4 5295.1806662443 5583.3199888857 21743.300422385 118238774.07152
1906	802870 135 36028 38401 5610.54825262742 5920.8844872296 4 34112 52111 172447 7614473953
1907	803005 175 36028 38401 5610.54825262742 5920.8844872296 4 5309.5482526274 5619.8844872296 21856.519172485 119480526.20055
1908	803180 135 36039 38496 5611.98259807301 5927.84793130717 4 29298 48299 155193 6226235813
1909	803315 174 36039 38496 5611.98259807301 5927.84793130717 4 5310.982598073 5626.8479313072 21866.18171704 119587985.64809
1910	803489 34 36057 36057 5614.94407006623 5614.94407006623 1 68197 68197 68197 4650830809
1911	803523 34 36060 36060 5614.94456420416 5614.94456420416 1 36203 36203 36203 1310657209
1912	803557 133 36164 38482 5625.6106172439 5927.00201140258 4 1115 19115 39460 576022900
1913	803690 175 36164 38482 5625.6106172439 5927.00201140258 4 5324.6106172439 5626.0020114026 21909.470575993 120057650.77881
1914	803865 35 36201 36201 5634.25258891165 5634.25258891165 1 -14883 -14883 -14883 221503689
1915	803900 44 36201 36201 5634.25258891165 5634.25258891165 1 5333.2525889116 5333.2525889116 5333.2525889116 28443583.177133
1916	803944 135 36230 38433 5638.45253822828 5923.90888456679 4 26328 43328 138312 4945302336
1917	804079 175 36230 38433 5638.45253822828 5923.90888456679 4 5337.4525382283 5622.9088845668 21914.220257716 120103454.0421
1918	804254 102 36233 37662 5638.45456175336 5825.04147251781 3 31298 42298 110894 4159826412
1919	804356 34 36311 36311 5647.41854908931 5647.41854908931 1 72045 72045 72045 5190482025
1920	804390 44 36311 36311 5647.41854908931 5647.41854908931 1 5346.4185490893 5346.4185490893 5346.4185490893 28584191.302046
1921	804434 136 36525 38823 5663.16252765403 5962.17186772983 4 42171 60169 204681 10653535943
1922	804570 175 36525 38823 5663.16252765403 5962.17186772983 4 5362.162527654 5661.1718677298 22062.730797993 121740665.42404
1923	804745 134 36528 38826 5663.1647627428 5962.1731936671 4 48200 66198 226797 13040176805
1924	804879 102 36705 38185 5705.85127596101 5900.80113531531 3 51200 63198 171598 9887267204
1925	804981 131 36705 38185 5705.85127596101 5900.80113531531 3 5404.851275961 5599.8011353153 16512.965448866 90911702.590421
1926	805112 34 36739 36739 5712.04531265178 5712.04531265178 1 41082 41082 41082 1687730724
1927	805146 68 36762 37566 5714.73513544133 5817.47474569498 2 51171 57170 108341 5886880141
1928	805214 87 36762 37566 5714.73513544133 5817.47474569498 2 5413.7351354413 5516.474745695 10930.209881136 59740021.736602
1929	805301 34 36765 36765 5714.73571017779 5714.73571017779 1 62199 62199 62199 3868715601
1930	805335 102 36785 38337 5717.26983458568 5917.13140423664 3 45171 57170 153512 7927299382
1931	805437 132 36785 38337 5717.26983458568 5917.13140423664 3 5416.2698345857 5616.1314042366 16557.04609998 91398611.712613
1932	805569 34 36788 36788 5717.27052079687 5717.27052079687 1 24174 24174 24174 584382276
1933	805603 101 36807 38448 5718.80734655418 5924.97801808041 3 28083 41082 103248 3638036502
1934	805704 102 36826 38525 5722.82038603503 5931.10844687073 3 50200 62199 168599 9547195601
1935	805806 131 36826 38525 5722.82038603503 5931.10844687073 3 5421.820386035 5630.1084468707 16581.661170314 91672197.145323
1936	805937 102 36829 38528 5722.82108954099 5931.11134682004 3 44171 57170 151512 7736615382
1937	806039 102 36849 38365 5723.53998830582 5918.60881629655 3 47239 59241 159720 8575516802
1938	806141 104 36948 38344 5729.47257580516 5917.46763550698 3 -30883 -19883 -76649 2019023067
1939	806245 130 36948 38344 5729.47257580516 5917.46763550698 3 5428.4725758052 5616.467635507 16571.194110839 91552505.369
1940	806375 101 37007 38580 5733.13180766343 5938.13414681181 3 49200 61199 166599 9324397601
1941	806476 105 37041 38464 5738.55224961582 5925.80186811943 3 -26854 -14854 -62562 1376667948
1942	806581 132 37041 38464 5738.55224961582 5925.80186811943 3 5437.5522496158 5624.8018681194 16592.177637168 91784318.678975
1943	806713 33 37094 37094 5746.6508463351 5746.6508463351 1 39082 39082 39082 1527402724
1944	806746 104 37297 38907 5757.7989196754 5967.68624627938 3 -33883 -21883 -83649 2404385067
1945	806850 131 37297 38907 5757.7989196754 5967.68624627938 3 5456.7989196754 5666.6862462794 16686.318403415 92833101.09133
1946	806981 66 37591 38504 5820.52156097951 5928.30552543959 2 1115 7115 8230 51866450
1947	807047 88 37591 38504 5820.52156097951 5928.30552543959 2 5519.5215609795 5627.3055254396 11146.827086419 62131685.738761
1948	807135 67 37594 38507 5820.52179060422 5928.30660470588 2 -4915 2085 -2830 28504450
1949	807202 68 37794 38608 5833.02094885499 5942.58654673231 2 49200 55200 104400 5467680000
1950	807270 87 37794 38608 5833.02094885499 5942.58654673231 2 5532.020948855 5641.5865467323 11173.607495587 62430754.542841
1951	807357 68 37797 38611 5833.02194220956 5942.58885422333 2 44171 50171 94342 4468206482
1952	807425 68 37843 38639 5839.37229647461 5945.79158845213 2 27083 33083 60166 1827973778
1953	807493 88 37843 38639 5839.37229647461 5945.79158845213 2 5538.3722964746 5644.7915884521 11183.163884927 62537239.771417
1954	807581 68 37877 38772 5845.79443543114 5953.09286246154 2 48200 55200 103400 5370280000
1955	807649 88 37877 38772 5845.79443543114 5953.09286246154 2 5544.7944354311 5652.0928624615 11196.887297893 62690899.057077
1956	807737 34 37880 37880 5845.79458732628 5845.79458732628 1 22203 22203 22203 492973209
1957	807771 31 38388 38388 5919.910196949 5919.910196949 1 1115 1115 1115 1243225
1958	807802 41 38388 38388 5919.910196949 5919.910196949 1 5618.910196949 5618.910196949 5618.910196949 31572151.801377
1959	807843 34 38414 38414 5922.46363439602 5922.46363439602 1 50200 50200 50200 2520040000
1960	807877 43 38414 38414 5922.46363439602 5922.46363439602 1 5621.463634396 5621.463634396 5621.463634396 31600853.392837
1961	807920 34 38792 38792 5957.19882944285 5957.19882944285 1 -4766 -4766 -4766 22714756
1962	807954 44 38792 38792 5957.19882944285 5957.19882944285 1 5656.1988294428 5656.1988294428 5656.1988294428 31992585.198191
1963	807998 35 38795 38795 5957.19894072029 5957.19894072029 1 -17794 -17794 -17794 316626436
1964	808033 35 38848 38848 5963.69258459421 5963.69258459421 1 -17794 -17794 -17794 316626436

