file 55959 1779838398                                           
version 3
run General-7-20260527-01:33:14-720927
attr configname General
attr datetime 20260527-01:33:14
attr datetimef 20260527-013314
attr experiment General
attr inifile Test_MLModel_1.ini
attr iterationvars $0=51904
attr iterationvarsd 51904
attr iterationvarsf 51904-
attr measurement $0=51904
attr network Florasat.Test_Individual.Florasat_Individual_Sats
attr processid 720927
attr repetition 7
attr replication #7
attr resultdir results
attr runnumber 7
attr seedset 7
config *.satellite[0].NoradModule.raan 185
config *.stats_altitude 670
config *.stats_raan 185
config image-path ../../images:../../../../samples/inet4.5_2/images
config network Florasat.Test_Individual.Florasat_Individual_Sats
config rng-class cMersenneTwister
config *.**.result-recording-modes -
config **.result-recording-modes -
config **.statistic-recording true
config **.scalar-recording true
config **.vector-recording true
config **.vector-record-eventnumbers true
config repeat 10
config seed-0-mt 51904
config sim-time-limit 749s
config simtime-resolution -11
config **.stats_altitude 670
config **.stats_raan 185
config *.radioMedium.backgroundNoise.power -110dBm
config *.radioMedium.mediumLimitCache.centerFrequency 868MHz
config *.radioMedium.mediumLimitCache.maxTransmissionDuration 4s
config *.radioMedium.mediumLimitCache.minInterferenceTime 0s
config **.numSatellites 1
config *.satellite[*].mobilityType "\"Sat_Mob_SatelliteMobility_Standalone\""
config *.satellite[*].noradModuleType "\"Sat_Mob_NoradA\""
config **.satellite[*].**.initFromDisplayString false
config *.satellite[*].mobility.faceForward true
config *.satellite[*].mobility.updateInterval 20s
config *.satellite[*].NoradModule.satName "\"FLoRaSat\""
config *.satellite[*].NoradModule.satIndex -1
config *.satellite[*].NoradModule.baseYear 20
config *.satellite[*].NoradModule.baseDay 1.5
config *.satellite[*].NoradModule.planes 1
config *.satellite[*].NoradModule.satPerPlane 1
config *.satellite[*].NoradModule.eccentricity 0.000001
config *.satellite[*].NoradModule.inclination 98
config *.satellite[*].NoradModule.altitude 670
config *.satellite[0].NoradModule.raan 185
config *.satellite[0].NoradModule.meanAnomaly 195
config *.satellite[*].phyDSL.radio.receiver.enableCollisionOverlap true
config *.satellite[*].phyDSL.radio.receiver.minCollisionOverlap 0s
config *.satellite[*].phyDSL.radio.antenna.typename ConstantGainAntenna
config *.satellite[*].phyDSL.radio.antenna.mobilityModule "\"^.^.^.mobility\""
config *.satellite[*].phyISL.radio.antenna.mobilityModule "\"^.^.^.mobility\""
config *.satellite[*].phyGSL.radio.antenna.mobilityModule "\"^.^.^.mobility\""
config *.satellite[*].phyDSL.radio.antenna.gain 12dB
config *.satellite[*].net.routingType "\"Null_Routing\""
config *.terminal[*].net.routingType "\"Ter_Null_Routing\""
config *.**.numGroundLinks 40
config *.satellite[*].**.interfaceTableModule "\"\""
config **.radioMedium.typename LoRaMedium
config **.radioMedium.analogModel.typename LoRaAnalogModel
config **.intraPlaneIslDisabled false
config **.interPlaneIslDisabled false
config **.numTerminals 30
config *.terminal[*].phy.radio.antenna.mobilityModule "\"^.^.^.mob\""
config *.terminal[*].dlk.mac.interfaceTableModule "\"\""
config *.terminal[*].dlk.energySourceModule "\"\""
config *.terminal[*].dlk.mac.LoRaTP "intuniform(12, 14)"
config *.terminal[*].dlk.mac.LoRaSF "intuniform(10, 12)"
config *.terminal[*].dlk.mac.useMLBox true
config *.terminal[*].dlk.mac.mlBox.modelPath "\"/home/ylnner/Documents/omnet++/omnetpp-6.3.0/projects/florasat_v4_ult_routing/simulations/Test_Individual/mlmodels/transformer_scripted.pt\""
config **.numberOfPacketsToSend 0
config **.timeToFirstPacket 1s
config **.timeToNextPacket 50s
config *.terminal[0].mob.radius 0.0
config *.terminal[0].mob.centerLatitude 54.978
config *.terminal[0].mob.centerLongitude -1.617
config *.terminal[1].mob.radius 0.0
config *.terminal[1].mob.centerLatitude 52.630
config *.terminal[1].mob.centerLongitude -1.139
config *.terminal[2].mob.radius 0.0
config *.terminal[2].mob.centerLatitude 52.612
config *.terminal[2].mob.centerLongitude -6.295
config *.terminal[3].mob.radius 0.0
config *.terminal[3].mob.centerLatitude 47.243
config *.terminal[3].mob.centerLongitude 6.024
config *.terminal[4].mob.radius 0.0
config *.terminal[4].mob.centerLatitude 43.610
config *.terminal[4].mob.centerLongitude 3.876
config *.terminal[5].mob.radius 0.0
config *.terminal[5].mob.centerLatitude 49.443
config *.terminal[5].mob.centerLongitude 1.099
config *.terminal[6].mob.radius 0.0
config *.terminal[6].mob.centerLatitude 37.992
config *.terminal[6].mob.centerLongitude -1.130
config *.terminal[7].mob.radius 0.0
config *.terminal[7].mob.centerLatitude 40.965
config *.terminal[7].mob.centerLongitude -5.664
config *.terminal[8].mob.radius 0.0
config *.terminal[8].mob.centerLatitude 40.657
config *.terminal[8].mob.centerLongitude -7.914
config *.terminal[9].mob.radius 0.0
config *.terminal[9].mob.centerLatitude 51.340
config *.terminal[9].mob.centerLongitude 12.373
config *.terminal[10].mob.radius 0.0
config *.terminal[10].mob.centerLatitude 51.455
config *.terminal[10].mob.centerLongitude 7.011
config *.terminal[11].mob.radius 0.0
config *.terminal[11].mob.centerLatitude 49.452
config *.terminal[11].mob.centerLongitude 11.076
config *.terminal[12].mob.radius 0.0
config *.terminal[12].mob.centerLatitude 43.769
config *.terminal[12].mob.centerLongitude 11.255
config *.terminal[13].mob.radius 0.0
config *.terminal[13].mob.centerLatitude 41.117
config *.terminal[13].mob.centerLongitude 16.871
config *.terminal[14].mob.radius 0.0
config *.terminal[14].mob.centerLatitude 52.132
config *.terminal[14].mob.centerLongitude 5.291
config *.terminal[15].mob.radius 0.0
config *.terminal[15].mob.centerLatitude 50.411
config *.terminal[15].mob.centerLongitude 4.444
config *.terminal[16].mob.radius 0.0
config *.terminal[16].mob.centerLatitude 47.559
config *.terminal[16].mob.centerLongitude 7.588
config *.terminal[17].mob.radius 0.0
config *.terminal[17].mob.centerLatitude 55.403
config *.terminal[17].mob.centerLongitude 10.402
config *.terminal[18].mob.radius 0.0
config *.terminal[18].mob.centerLatitude 59.858
config *.terminal[18].mob.centerLongitude 17.638
config *.terminal[19].mob.radius 0.0
config *.terminal[19].mob.centerLatitude 60.451
config *.terminal[19].mob.centerLongitude 22.266
config *.terminal[20].mob.radius 0.0
config *.terminal[20].mob.centerLatitude 56.325
config *.terminal[20].mob.centerLongitude 22.349
config *.terminal[21].mob.radius 0.0
config *.terminal[21].mob.centerLatitude 49.883
config *.terminal[21].mob.centerLongitude 18.568
config *.terminal[22].mob.radius 0.0
config *.terminal[22].mob.centerLatitude 47.531
config *.terminal[22].mob.centerLongitude 21.627
config *.terminal[23].mob.radius 0.0
config *.terminal[23].mob.centerLatitude 44.179
config *.terminal[23].mob.centerLongitude 28.649
config *.terminal[24].mob.radius 0.0
config *.terminal[24].mob.centerLatitude 45.327
config *.terminal[24].mob.centerLongitude 14.442
config *.terminal[25].mob.radius 0.0
config *.terminal[25].mob.centerLatitude 40.694
config *.terminal[25].mob.centerLongitude 30.400
config *.terminal[26].mob.radius 0.0
config *.terminal[26].mob.centerLatitude 37.066
config *.terminal[26].mob.centerLongitude 37.383
config *.terminal[27].mob.radius 0.0
config *.terminal[27].mob.centerLatitude 64.836
config *.terminal[27].mob.centerLongitude -23.708
config *.terminal[28].mob.radius 0.0
config *.terminal[28].mob.centerLatitude 28.099
config *.terminal[28].mob.centerLongitude -17.113
config *.terminal[29].mob.radius 0.0
config *.terminal[29].mob.centerLatitude 34.921
config *.terminal[29].mob.centerLongitude 33.623
config **.numStations 3
config **.numStations 3
config *.station[0].mobility.latitude 55.752
config *.station[0].mobility.longitude 37.616
config *.station[0].cityName "\"Moscow\""
config *.station[0].groundStationId 7
config *.station[0].routerAddr "\"10.0.0.29\""
config *.station[0].serving "\"10.0.0.29\""
config *.station[1].mobility.latitude 28.652
config *.station[1].mobility.longitude 77.231
config *.station[1].cityName "\"Delhi\""
config *.station[1].groundStationId 11
config *.station[1].routerAddr "\"10.0.0.45\""
config *.station[1].serving "\"10.0.0.45\""
config *.station[2].mobility.latitude 25.35
config *.station[2].mobility.longitude 51.24
config *.station[2].cityName "\"Katar\""
config *.station[2].groundStationId 19
config *.station[2].routerAddr "\"10.0.0.77\""
config *.station[2].serving "\"10.0.0.77\""
config *.visualizer.canvasVisualizer.mediumVisualizer.typename ""
config *.visualizer.*.radioVisualizer.displayAntennaLobes true
config *.visualizer.*.dataLinkVisualizer.displayLinks true
config *.visualizer.*.mobilityVisualizer.displayMovementTrails true
config *.visualizer.*.mobilityVisualizer.movementTrailLineWidth 1
config *.visualizer.*.mobilityVisualizer.trailLength 3000
config **.ttxStart_max 30s
config **.ttxIdle_min 10s
config **.ttxIdle_max 25s
config **.Ntw 2
config **.Ntx 45
config **.ttwDuration 550s

vector 0 Florasat_Individual_Sats.satellite[0].dlkDSL.mac "Satellite Position when Repetition Received" ETV
vector 1 Florasat_Individual_Sats.satellite[0].dlkDSL.mac "Repetition Position for Node 373 at Satellite" ETV
vector 2 Florasat_Individual_Sats.satellite[0].dlkDSL.mac "All Nodes Repetition Generation Delay at Satellite" ETV
vector 3 Florasat_Individual_Sats.satellite[0].dlkDSL.mac "Repetition Generation Delay for Node 373 at Satellite" ETV
vector 4 Florasat_Individual_Sats.satellite[0].dlkDSL.mac "All Nodes Message Generation Delay at Satellite" ETV
vector 5 Florasat_Individual_Sats.satellite[0].dlkDSL.mac "Message Generation Delay for Node 373 at Satellite" ETV
vector 6 Florasat_Individual_Sats.satellite[0].net.packetHandler "packets received" ETV
vector 7 Florasat_Individual_Sats.satellite[0].net.packetHandler "dropped unroutable" ETV
vector 8 Florasat_Individual_Sats.satellite[0].net.packetHandler "packets dropped" ETV
vector 9 Florasat_Individual_Sats.satellite[0].dlkDSL.mac "Repetition Position for Node 178 at Satellite" ETV
vector 10 Florasat_Individual_Sats.satellite[0].dlkDSL.mac "Repetition Generation Delay for Node 178 at Satellite" ETV
vector 11 Florasat_Individual_Sats.satellite[0].dlkDSL.mac "Message Generation Delay for Node 178 at Satellite" ETV
vector 12 Florasat_Individual_Sats.satellite[0].dlkDSL.mac "Repetition Position for Node 463 at Satellite" ETV
vector 13 Florasat_Individual_Sats.satellite[0].dlkDSL.mac "Repetition Generation Delay for Node 463 at Satellite" ETV
vector 14 Florasat_Individual_Sats.satellite[0].dlkDSL.mac "Message Generation Delay for Node 463 at Satellite" ETV
vector 15 Florasat_Individual_Sats.satellite[0].dlkDSL.mac "Repetition Position for Node 418 at Satellite" ETV
vector 16 Florasat_Individual_Sats.satellite[0].dlkDSL.mac "Repetition Generation Delay for Node 418 at Satellite" ETV
vector 17 Florasat_Individual_Sats.satellite[0].dlkDSL.mac "Message Generation Delay for Node 418 at Satellite" ETV
vector 18 Florasat_Individual_Sats.satellite[0].dlkDSL.mac "Repetition Position for Node 73 at Satellite" ETV
vector 19 Florasat_Individual_Sats.satellite[0].dlkDSL.mac "Repetition Generation Delay for Node 73 at Satellite" ETV
vector 20 Florasat_Individual_Sats.satellite[0].dlkDSL.mac "Message Generation Delay for Node 73 at Satellite" ETV
vector 21 Florasat_Individual_Sats.satellite[0].dlkDSL.mac "Repetition Position for Node 58 at Satellite" ETV
vector 22 Florasat_Individual_Sats.satellite[0].dlkDSL.mac "Repetition Generation Delay for Node 58 at Satellite" ETV
vector 23 Florasat_Individual_Sats.satellite[0].dlkDSL.mac "Message Generation Delay for Node 58 at Satellite" ETV
vector 24 Florasat_Individual_Sats.satellite[0].dlkDSL.mac "Repetition Position for Node 388 at Satellite" ETV
vector 25 Florasat_Individual_Sats.satellite[0].dlkDSL.mac "Repetition Generation Delay for Node 388 at Satellite" ETV
vector 26 Florasat_Individual_Sats.satellite[0].dlkDSL.mac "Message Generation Delay for Node 388 at Satellite" ETV
vector 27 Florasat_Individual_Sats.satellite[0].dlkDSL.mac "Repetition Position for Node 268 at Satellite" ETV
vector 28 Florasat_Individual_Sats.satellite[0].dlkDSL.mac "Repetition Generation Delay for Node 268 at Satellite" ETV
vector 29 Florasat_Individual_Sats.satellite[0].dlkDSL.mac "Message Generation Delay for Node 268 at Satellite" ETV
vector 30 Florasat_Individual_Sats.satellite[0].dlkDSL.mac "Repetition Position for Node 328 at Satellite" ETV
vector 31 Florasat_Individual_Sats.satellite[0].dlkDSL.mac "Repetition Generation Delay for Node 328 at Satellite" ETV
vector 32 Florasat_Individual_Sats.satellite[0].dlkDSL.mac "Message Generation Delay for Node 328 at Satellite" ETV
vector 33 Florasat_Individual_Sats.satellite[0].dlkDSL.mac "Repetition Position for Node 238 at Satellite" ETV
vector 34 Florasat_Individual_Sats.satellite[0].dlkDSL.mac "Repetition Generation Delay for Node 238 at Satellite" ETV
vector 35 Florasat_Individual_Sats.satellite[0].dlkDSL.mac "Message Generation Delay for Node 238 at Satellite" ETV
vector 36 Florasat_Individual_Sats.satellite[0].dlkDSL.mac "Repetition Position for Node 403 at Satellite" ETV
vector 37 Florasat_Individual_Sats.satellite[0].dlkDSL.mac "Repetition Generation Delay for Node 403 at Satellite" ETV
vector 38 Florasat_Individual_Sats.satellite[0].dlkDSL.mac "Message Generation Delay for Node 403 at Satellite" ETV
vector 39 Florasat_Individual_Sats.satellite[0].dlkDSL.mac "Repetition Position for Node 88 at Satellite" ETV
vector 40 Florasat_Individual_Sats.satellite[0].dlkDSL.mac "Repetition Generation Delay for Node 88 at Satellite" ETV
vector 41 Florasat_Individual_Sats.satellite[0].dlkDSL.mac "Message Generation Delay for Node 88 at Satellite" ETV
vector 42 Florasat_Individual_Sats.satellite[0].dlkDSL.mac "Repetition Position for Node 163 at Satellite" ETV
vector 43 Florasat_Individual_Sats.satellite[0].dlkDSL.mac "Repetition Generation Delay for Node 163 at Satellite" ETV
vector 44 Florasat_Individual_Sats.satellite[0].dlkDSL.mac "Message Generation Delay for Node 163 at Satellite" ETV
vector 45 Florasat_Individual_Sats.satellite[0].dlkDSL.mac "Repetition Position for Node 103 at Satellite" ETV
vector 46 Florasat_Individual_Sats.satellite[0].dlkDSL.mac "Repetition Generation Delay for Node 103 at Satellite" ETV
vector 47 Florasat_Individual_Sats.satellite[0].dlkDSL.mac "Message Generation Delay for Node 103 at Satellite" ETV
vector 48 Florasat_Individual_Sats.satellite[0].dlkDSL.mac "Repetition Position for Node 313 at Satellite" ETV
vector 49 Florasat_Individual_Sats.satellite[0].dlkDSL.mac "Repetition Generation Delay for Node 313 at Satellite" ETV
vector 50 Florasat_Individual_Sats.satellite[0].dlkDSL.mac "Message Generation Delay for Node 313 at Satellite" ETV
vector 51 Florasat_Individual_Sats.satellite[0].dlkDSL.mac "Repetition Position for Node 133 at Satellite" ETV
vector 52 Florasat_Individual_Sats.satellite[0].dlkDSL.mac "Repetition Generation Delay for Node 133 at Satellite" ETV
vector 53 Florasat_Individual_Sats.satellite[0].dlkDSL.mac "Message Generation Delay for Node 133 at Satellite" ETV
vector 54 Florasat_Individual_Sats.satellite[0].dlkDSL.mac "Repetition Position for Node 343 at Satellite" ETV
vector 55 Florasat_Individual_Sats.satellite[0].dlkDSL.mac "Repetition Generation Delay for Node 343 at Satellite" ETV
vector 56 Florasat_Individual_Sats.satellite[0].dlkDSL.mac "Message Generation Delay for Node 343 at Satellite" ETV
vector 57 Florasat_Individual_Sats.satellite[0].dlkDSL.mac "Repetition Position for Node 208 at Satellite" ETV
vector 58 Florasat_Individual_Sats.satellite[0].dlkDSL.mac "Repetition Generation Delay for Node 208 at Satellite" ETV
vector 59 Florasat_Individual_Sats.satellite[0].dlkDSL.mac "Message Generation Delay for Node 208 at Satellite" ETV
vector 60 Florasat_Individual_Sats.satellite[0].dlkDSL.mac "Repetition Position for Node 358 at Satellite" ETV
vector 61 Florasat_Individual_Sats.satellite[0].dlkDSL.mac "Repetition Generation Delay for Node 358 at Satellite" ETV
vector 62 Florasat_Individual_Sats.satellite[0].dlkDSL.mac "Message Generation Delay for Node 358 at Satellite" ETV
vector 63 Florasat_Individual_Sats.satellite[0].dlkDSL.mac "Repetition Position for Node 223 at Satellite" ETV
vector 64 Florasat_Individual_Sats.satellite[0].dlkDSL.mac "Repetition Generation Delay for Node 223 at Satellite" ETV
vector 65 Florasat_Individual_Sats.satellite[0].dlkDSL.mac "Message Generation Delay for Node 223 at Satellite" ETV
vector 66 Florasat_Individual_Sats.satellite[0].dlkDSL.mac "Repetition Position for Node 253 at Satellite" ETV
vector 67 Florasat_Individual_Sats.satellite[0].dlkDSL.mac "Repetition Generation Delay for Node 253 at Satellite" ETV
vector 68 Florasat_Individual_Sats.satellite[0].dlkDSL.mac "Message Generation Delay for Node 253 at Satellite" ETV
vector 69 Florasat_Individual_Sats.satellite[0].dlkDSL.mac "Repetition Position for Node 298 at Satellite" ETV
vector 70 Florasat_Individual_Sats.satellite[0].dlkDSL.mac "Repetition Generation Delay for Node 298 at Satellite" ETV
vector 71 Florasat_Individual_Sats.satellite[0].dlkDSL.mac "Message Generation Delay for Node 298 at Satellite" ETV
vector 72 Florasat_Individual_Sats.satellite[0].dlkDSL.mac "Repetition Position for Node 283 at Satellite" ETV
vector 73 Florasat_Individual_Sats.satellite[0].dlkDSL.mac "Repetition Generation Delay for Node 283 at Satellite" ETV
vector 74 Florasat_Individual_Sats.satellite[0].dlkDSL.mac "Message Generation Delay for Node 283 at Satellite" ETV
vector 75 Florasat_Individual_Sats.satellite[0].dlkDSL.mac "Repetition Position for Node 433 at Satellite" ETV
vector 76 Florasat_Individual_Sats.satellite[0].dlkDSL.mac "Repetition Generation Delay for Node 433 at Satellite" ETV
vector 77 Florasat_Individual_Sats.satellite[0].dlkDSL.mac "Message Generation Delay for Node 433 at Satellite" ETV
vector 78 Florasat_Individual_Sats.satellite[0].dlkDSL.mac "Repetition Position for Node 118 at Satellite" ETV
vector 79 Florasat_Individual_Sats.satellite[0].dlkDSL.mac "Repetition Generation Delay for Node 118 at Satellite" ETV
vector 80 Florasat_Individual_Sats.satellite[0].dlkDSL.mac "Message Generation Delay for Node 118 at Satellite" ETV
vector 81 Florasat_Individual_Sats.satellite[0].dlkDSL.mac "Repetition Position for Node 193 at Satellite" ETV
vector 82 Florasat_Individual_Sats.satellite[0].dlkDSL.mac "Repetition Generation Delay for Node 193 at Satellite" ETV
vector 83 Florasat_Individual_Sats.satellite[0].dlkDSL.mac "Message Generation Delay for Node 193 at Satellite" ETV
vector 84 Florasat_Individual_Sats.satellite[0].dlkDSL.mac "Repetition Position for Node 148 at Satellite" ETV
vector 85 Florasat_Individual_Sats.satellite[0].dlkDSL.mac "Repetition Generation Delay for Node 148 at Satellite" ETV
vector 86 Florasat_Individual_Sats.satellite[0].dlkDSL.mac "Message Generation Delay for Node 148 at Satellite" ETV
0	18978 4439 127 4318 3.11208337293 473.49959333487 167 180 180 30060 5410800
1	23417 211 127 3830 3.11208337293 359.15274622482 8 180 180 1440 259200
2	23628 6392 127 4318 3.11208337293 473.49959333487 167 2.11208337293 472.49959333487 34409.396105942 8817495.0184102
3	30020 303 127 3830 3.11208337293 359.15274622482 8 2.11208337293 358.15274622482 1875.6425027166 543560.21283976
4	30323 993 127 3258 3.11208337293 258.72803285312 27 2.11208337293 257.72803285312 2595.9374094354 367572.49398868
5	31316 34 127 127 3.11208337293 3.11208337293 1 2.11208337293 2.11208337293 2.11208337293 4.4608961742074
6	31350 4331 128 4319 3.11208337293 473.49959333487 167 1 167 14028 1566460
7	35681 4331 128 4319 3.11208337293 473.49959333487 167 1 167 14028 1566460
8	40012 4331 128 4319 3.11208337293 473.49959333487 167 1 167 14028 1566460
9	44343 130 158 2904 10.89437517783 236.13675627372 5 180 180 900 162000
10	44473 191 158 2904 10.89437517783 236.13675627372 5 9.89437517783 235.13675627372 626.80478024895 115304.87527534
11	44664 36 158 158 10.89437517783 10.89437517783 1 9.89437517783 9.89437517783 9.89437517783 97.898660159658
12	44700 215 174 3211 12.54467019173 255.23784744148 8 180 180 1440 259200
13	44915 305 174 3211 12.54467019173 255.23784744148 8 11.54467019173 254.23784744148 1092.1564396198 205134.7525
14	45220 37 174 174 12.54467019173 12.54467019173 1 11.54467019173 11.54467019173 11.54467019173 133.27940983582
15	45257 192 369 4290 33.8140510789 461.13562277148 7 180 180 1260 226800
16	45449 273 369 4290 33.8140510789 461.13562277148 7 32.8140510789 460.13562277148 2397.0210127537 962581.99514946
17	45722 35 369 369 33.8140510789 33.8140510789 1 32.8140510789 32.8140510789 32.8140510789 1076.7619482087
18	45757 273 386 3274 35.43325120227 260.57798960822 10 180 180 1800 324000
19	46030 389 386 3274 35.43325120227 260.57798960822 10 34.43325120227 259.57798960822 1410.5254831578 257088.93712826
20	46419 37 386 386 35.43325120227 35.43325120227 1 34.43325120227 34.43325120227 34.43325120227 1185.6487883586
21	46456 136 460 2866 43.5709240247 232.14058121028 5 180 180 900 162000
22	46592 193 460 2866 43.5709240247 232.14058121028 5 42.5709240247 231.14058121028 831.99157236097 161991.30855385
23	46785 35 460 460 43.5709240247 43.5709240247 1 42.5709240247 42.5709240247 42.5709240247 1812.2835723168
24	46820 82 489 3162 46.98199041247 251.13066274965 3 180 180 540 97200
25	46902 117 489 3162 46.98199041247 251.13066274965 3 45.98199041247 250.13066274965 475.48574878127 96854.399321868
26	47019 37 489 489 46.98199041247 46.98199041247 1 45.98199041247 45.98199041247 45.98199041247 2114.3434422925
27	47056 220 523 3167 49.21634239371 251.50998253252 8 180 180 1440 259200
28	47276 314 523 3167 49.21634239371 251.50998253252 8 48.21634239371 250.50998253252 1312.4440251546 255902.20625409
29	47590 37 523 523 49.21634239371 49.21634239371 1 48.21634239371 48.21634239371 48.21634239371 2324.8156738275
30	47627 331 753 3428 65.2122739945 283.69841971763 12 180 180 2160 388800
31	47958 472 753 3428 65.2122739945 283.69841971763 12 64.2122739945 282.69841971763 2034.8656732071 397571.37077744
32	48430 35 753 753 65.2122739945 65.2122739945 1 64.2122739945 64.2122739945 64.2122739945 4123.2161315447
33	48465 275 762 4318 66.30862878696 473.49959333487 10 180 180 1800 324000
34	48740 391 762 4318 66.30862878696 473.49959333487 10 65.30862878696 472.49959333487 2621.6241945072 920260.92779429
35	49131 37 762 762 66.30862878696 66.30862878696 1 65.30862878696 65.30862878696 65.30862878696 4265.2169940329
36	49168 109 835 3250 72.43261764737 258.22299541301 4 180 180 720 129600
37	49277 155 835 3250 72.43261764737 258.22299541301 4 71.43261764737 257.22299541301 599.3048380379 110737.7442453
38	49432 37 835 835 72.43261764737 72.43261764737 1 71.43261764737 71.43261764737 71.43261764737 5102.6188639554
39	49469 194 891 3420 76.87768613746 282.25040266697 7 180 180 1260 226800
40	49663 277 891 3420 76.87768613746 282.25040266697 7 75.87768613746 281.25040266697 1323.2966912597 282088.63739965
41	49940 37 891 891 76.87768613746 76.87768613746 1 75.87768613746 75.87768613746 75.87768613746 5757.4232535749
42	49977 54 928 3353 80.69970294814 272.02582681532 2 180 180 360 64800
43	50031 77 928 3353 80.69970294814 272.02582681532 2 79.69970294814 271.02582681532 350.72552976346 79807.04145095
44	50108 37 928 928 80.69970294814 80.69970294814 1 79.69970294814 79.69970294814 79.69970294814 6352.0426500218
45	50145 109 972 3441 84.65983265175 286.57748598118 4 180 180 720 129600
46	50254 155 972 3441 84.65983265175 286.57748598118 4 83.65983265175 285.57748598118 883.32424688091 220856.49415856
47	50409 37 972 972 84.65983265175 84.65983265175 1 83.65983265175 83.65983265175 83.65983265175 6998.9675993188
48	50446 279 1027 3589 89.46314274793 303.96759095128 10 180 180 1800 324000
49	50725 398 1027 3589 89.46314274793 303.96759095128 10 88.46314274793 302.96759095128 1976.5555127831 436979.2470057
50	51123 38 1027 1027 89.46314274793 89.46314274793 1 88.46314274793 88.46314274793 88.46314274793 7825.7276248406
51	51161 111 1078 2919 93.50478493319 237.11112647144 4 180 180 720 129600
52	51272 158 1078 2919 93.50478493319 237.11112647144 4 92.50478493319 236.11112647144 706.3241170792 137172.88440294
53	51430 38 1078 1078 93.50478493319 93.50478493319 1 92.50478493319 92.50478493319 92.50478493319 8557.1352355357
54	51468 279 1117 3375 95.32634800746 274.41445644924 10 180 180 1800 324000
55	51747 398 1117 3375 95.32634800746 274.41445644924 10 94.32634800746 273.41445644924 1830.5189088852 369138.29675933
56	52145 38 1117 1117 95.32634800746 95.32634800746 1 94.32634800746 94.32634800746 94.32634800746 8897.4599284245
57	52183 112 1155 3306 100.32147906818 265.14959104107 4 180 180 720 129600
58	52295 159 1155 3306 100.32147906818 265.14959104107 4 99.32147906818 264.14959104107 825.00458279106 186870.77712986
59	52454 39 1155 1155 100.32147906818 100.32147906818 1 99.32147906818 99.32147906818 99.32147906818 9864.7562042909
60	52493 307 1275 3465 103.63823851397 291.40265283584 11 180 180 1980 356400
61	52800 438 1275 3465 103.63823851397 291.40265283584 11 102.63823851397 290.40265283584 2130.5164361296 454863.47522517
62	53238 40 1275 1275 103.63823851397 103.63823851397 1 102.63823851397 102.63823851397 102.63823851397 10534.608005251
63	53278 222 1461 3887 121.62752268946 379.41792307765 8 180 180 1440 259200
64	53500 316 1461 3887 121.62752268946 379.41792307765 8 120.62752268946 378.41792307765 1830.3065266902 485516.28219645
65	53816 40 1461 1461 121.62752268946 121.62752268946 1 120.62752268946 120.62752268946 120.62752268946 14550.999230196
66	53856 82 1474 2933 122.45037886141 238.36326963445 3 180 180 540 97200
67	53938 116 1474 2933 122.45037886141 238.36326963445 3 121.45037886141 237.36326963445 548.29356818686 106994.15626324
68	54054 40 1474 1474 122.45037886141 122.45037886141 1 121.45037886141 121.45037886141 121.45037886141 14750.19452558
69	54094 195 1894 4115 154.13076645689 428.5234801529 7 180 180 1260 226800
70	54289 278 1894 4115 154.13076645689 428.5234801529 7 153.13076645689 427.5234801529 2292.1450835586 814710.22060816
71	54567 40 1894 1894 154.13076645689 154.13076645689 1 153.13076645689 153.13076645689 153.13076645689 23449.031635675
72	54607 111 2054 2944 167.8257674479 239.42517666723 4 180 180 720 129600
73	54718 158 2054 2944 167.8257674479 239.42517666723 4 166.8257674479 238.42517666723 822.73280167142 171885.99624656
74	54876 38 2054 2054 167.8257674479 167.8257674479 1 166.8257674479 166.8257674479 166.8257674479 27830.836684581
75	54914 56 2303 2747 189.04886075706 221.74215245122 2 180 180 360 64800
76	54970 80 2303 2747 189.04886075706 221.74215245122 2 188.04886075706 220.74215245122 408.79101320828 84089.471900826
77	55050 40 2303 2303 189.04886075706 189.04886075706 1 188.04886075706 188.04886075706 188.04886075706 35362.374032028
78	55090 28 2742 2742 221.60879484475 221.60879484475 1 180 180 180 32400
79	55118 40 2742 2742 221.60879484475 221.60879484475 1 220.60879484475 220.60879484475 220.60879484475 48668.240362853
80	55158 40 2742 2742 221.60879484475 221.60879484475 1 220.60879484475 220.60879484475 220.60879484475 48668.240362853
81	55198 224 2759 3864 223.50486223331 374.82499309328 8 180 180 1440 259200
82	55422 320 2759 3864 223.50486223331 374.82499309328 8 222.50486223331 373.82499309328 2446.1076270602 766851.02451076
83	55742 40 2759 2759 223.50486223331 223.50486223331 1 222.50486223331 222.50486223331 222.50486223331 49508.413717464
84	55782 56 3258 3398 258.72803285312 279.55036175031 2 180 180 360 64800
85	55838 80 3258 3398 258.72803285312 279.55036175031 2 257.72803285312 278.55036175031 536.27839460343 144014.04294957
86	55918 40 3258 3258 258.72803285312 258.72803285312 1 257.72803285312 257.72803285312 257.72803285312 66423.738918339

