file 55415 1779838371                                           
version 3
run General-1-20260527-01:32:47-720927
attr configname General
attr datetime 20260527-01:32:47
attr datetimef 20260527-013247
attr experiment General
attr inifile Test_MLModel_1.ini
attr iterationvars $0=84242
attr iterationvarsd 84242
attr iterationvarsf 84242-
attr measurement $0=84242
attr network Florasat.Test_Individual.Florasat_Individual_Sats
attr processid 720927
attr repetition 1
attr replication #1
attr resultdir results
attr runnumber 1
attr seedset 1
config *.satellite[0].NoradModule.raan 185
config *.stats_altitude 670
config *.stats_raan 185
config image-path ../../images:../../../../samples/inet4.5_2/images
config network Florasat.Test_Individual.Florasat_Individual_Sats
config rng-class cMersenneTwister
config *.**.result-recording-modes -
config **.result-recording-modes -
config **.statistic-recording true
config **.scalar-recording true
config **.vector-recording true
config **.vector-record-eventnumbers true
config repeat 10
config seed-0-mt 84242
config sim-time-limit 749s
config simtime-resolution -11
config **.stats_altitude 670
config **.stats_raan 185
config *.radioMedium.backgroundNoise.power -110dBm
config *.radioMedium.mediumLimitCache.centerFrequency 868MHz
config *.radioMedium.mediumLimitCache.maxTransmissionDuration 4s
config *.radioMedium.mediumLimitCache.minInterferenceTime 0s
config **.numSatellites 1
config *.satellite[*].mobilityType "\"Sat_Mob_SatelliteMobility_Standalone\""
config *.satellite[*].noradModuleType "\"Sat_Mob_NoradA\""
config **.satellite[*].**.initFromDisplayString false
config *.satellite[*].mobility.faceForward true
config *.satellite[*].mobility.updateInterval 20s
config *.satellite[*].NoradModule.satName "\"FLoRaSat\""
config *.satellite[*].NoradModule.satIndex -1
config *.satellite[*].NoradModule.baseYear 20
config *.satellite[*].NoradModule.baseDay 1.5
config *.satellite[*].NoradModule.planes 1
config *.satellite[*].NoradModule.satPerPlane 1
config *.satellite[*].NoradModule.eccentricity 0.000001
config *.satellite[*].NoradModule.inclination 98
config *.satellite[*].NoradModule.altitude 670
config *.satellite[0].NoradModule.raan 185
config *.satellite[0].NoradModule.meanAnomaly 195
config *.satellite[*].phyDSL.radio.receiver.enableCollisionOverlap true
config *.satellite[*].phyDSL.radio.receiver.minCollisionOverlap 0s
config *.satellite[*].phyDSL.radio.antenna.typename ConstantGainAntenna
config *.satellite[*].phyDSL.radio.antenna.mobilityModule "\"^.^.^.mobility\""
config *.satellite[*].phyISL.radio.antenna.mobilityModule "\"^.^.^.mobility\""
config *.satellite[*].phyGSL.radio.antenna.mobilityModule "\"^.^.^.mobility\""
config *.satellite[*].phyDSL.radio.antenna.gain 12dB
config *.satellite[*].net.routingType "\"Null_Routing\""
config *.terminal[*].net.routingType "\"Ter_Null_Routing\""
config *.**.numGroundLinks 40
config *.satellite[*].**.interfaceTableModule "\"\""
config **.radioMedium.typename LoRaMedium
config **.radioMedium.analogModel.typename LoRaAnalogModel
config **.intraPlaneIslDisabled false
config **.interPlaneIslDisabled false
config **.numTerminals 30
config *.terminal[*].phy.radio.antenna.mobilityModule "\"^.^.^.mob\""
config *.terminal[*].dlk.mac.interfaceTableModule "\"\""
config *.terminal[*].dlk.energySourceModule "\"\""
config *.terminal[*].dlk.mac.LoRaTP "intuniform(12, 14)"
config *.terminal[*].dlk.mac.LoRaSF "intuniform(10, 12)"
config *.terminal[*].dlk.mac.useMLBox true
config *.terminal[*].dlk.mac.mlBox.modelPath "\"/home/ylnner/Documents/omnet++/omnetpp-6.3.0/projects/florasat_v4_ult_routing/simulations/Test_Individual/mlmodels/transformer_scripted.pt\""
config **.numberOfPacketsToSend 0
config **.timeToFirstPacket 1s
config **.timeToNextPacket 50s
config *.terminal[0].mob.radius 0.0
config *.terminal[0].mob.centerLatitude 54.978
config *.terminal[0].mob.centerLongitude -1.617
config *.terminal[1].mob.radius 0.0
config *.terminal[1].mob.centerLatitude 52.630
config *.terminal[1].mob.centerLongitude -1.139
config *.terminal[2].mob.radius 0.0
config *.terminal[2].mob.centerLatitude 52.612
config *.terminal[2].mob.centerLongitude -6.295
config *.terminal[3].mob.radius 0.0
config *.terminal[3].mob.centerLatitude 47.243
config *.terminal[3].mob.centerLongitude 6.024
config *.terminal[4].mob.radius 0.0
config *.terminal[4].mob.centerLatitude 43.610
config *.terminal[4].mob.centerLongitude 3.876
config *.terminal[5].mob.radius 0.0
config *.terminal[5].mob.centerLatitude 49.443
config *.terminal[5].mob.centerLongitude 1.099
config *.terminal[6].mob.radius 0.0
config *.terminal[6].mob.centerLatitude 37.992
config *.terminal[6].mob.centerLongitude -1.130
config *.terminal[7].mob.radius 0.0
config *.terminal[7].mob.centerLatitude 40.965
config *.terminal[7].mob.centerLongitude -5.664
config *.terminal[8].mob.radius 0.0
config *.terminal[8].mob.centerLatitude 40.657
config *.terminal[8].mob.centerLongitude -7.914
config *.terminal[9].mob.radius 0.0
config *.terminal[9].mob.centerLatitude 51.340
config *.terminal[9].mob.centerLongitude 12.373
config *.terminal[10].mob.radius 0.0
config *.terminal[10].mob.centerLatitude 51.455
config *.terminal[10].mob.centerLongitude 7.011
config *.terminal[11].mob.radius 0.0
config *.terminal[11].mob.centerLatitude 49.452
config *.terminal[11].mob.centerLongitude 11.076
config *.terminal[12].mob.radius 0.0
config *.terminal[12].mob.centerLatitude 43.769
config *.terminal[12].mob.centerLongitude 11.255
config *.terminal[13].mob.radius 0.0
config *.terminal[13].mob.centerLatitude 41.117
config *.terminal[13].mob.centerLongitude 16.871
config *.terminal[14].mob.radius 0.0
config *.terminal[14].mob.centerLatitude 52.132
config *.terminal[14].mob.centerLongitude 5.291
config *.terminal[15].mob.radius 0.0
config *.terminal[15].mob.centerLatitude 50.411
config *.terminal[15].mob.centerLongitude 4.444
config *.terminal[16].mob.radius 0.0
config *.terminal[16].mob.centerLatitude 47.559
config *.terminal[16].mob.centerLongitude 7.588
config *.terminal[17].mob.radius 0.0
config *.terminal[17].mob.centerLatitude 55.403
config *.terminal[17].mob.centerLongitude 10.402
config *.terminal[18].mob.radius 0.0
config *.terminal[18].mob.centerLatitude 59.858
config *.terminal[18].mob.centerLongitude 17.638
config *.terminal[19].mob.radius 0.0
config *.terminal[19].mob.centerLatitude 60.451
config *.terminal[19].mob.centerLongitude 22.266
config *.terminal[20].mob.radius 0.0
config *.terminal[20].mob.centerLatitude 56.325
config *.terminal[20].mob.centerLongitude 22.349
config *.terminal[21].mob.radius 0.0
config *.terminal[21].mob.centerLatitude 49.883
config *.terminal[21].mob.centerLongitude 18.568
config *.terminal[22].mob.radius 0.0
config *.terminal[22].mob.centerLatitude 47.531
config *.terminal[22].mob.centerLongitude 21.627
config *.terminal[23].mob.radius 0.0
config *.terminal[23].mob.centerLatitude 44.179
config *.terminal[23].mob.centerLongitude 28.649
config *.terminal[24].mob.radius 0.0
config *.terminal[24].mob.centerLatitude 45.327
config *.terminal[24].mob.centerLongitude 14.442
config *.terminal[25].mob.radius 0.0
config *.terminal[25].mob.centerLatitude 40.694
config *.terminal[25].mob.centerLongitude 30.400
config *.terminal[26].mob.radius 0.0
config *.terminal[26].mob.centerLatitude 37.066
config *.terminal[26].mob.centerLongitude 37.383
config *.terminal[27].mob.radius 0.0
config *.terminal[27].mob.centerLatitude 64.836
config *.terminal[27].mob.centerLongitude -23.708
config *.terminal[28].mob.radius 0.0
config *.terminal[28].mob.centerLatitude 28.099
config *.terminal[28].mob.centerLongitude -17.113
config *.terminal[29].mob.radius 0.0
config *.terminal[29].mob.centerLatitude 34.921
config *.terminal[29].mob.centerLongitude 33.623
config **.numStations 3
config **.numStations 3
config *.station[0].mobility.latitude 55.752
config *.station[0].mobility.longitude 37.616
config *.station[0].cityName "\"Moscow\""
config *.station[0].groundStationId 7
config *.station[0].routerAddr "\"10.0.0.29\""
config *.station[0].serving "\"10.0.0.29\""
config *.station[1].mobility.latitude 28.652
config *.station[1].mobility.longitude 77.231
config *.station[1].cityName "\"Delhi\""
config *.station[1].groundStationId 11
config *.station[1].routerAddr "\"10.0.0.45\""
config *.station[1].serving "\"10.0.0.45\""
config *.station[2].mobility.latitude 25.35
config *.station[2].mobility.longitude 51.24
config *.station[2].cityName "\"Katar\""
config *.station[2].groundStationId 19
config *.station[2].routerAddr "\"10.0.0.77\""
config *.station[2].serving "\"10.0.0.77\""
config *.visualizer.canvasVisualizer.mediumVisualizer.typename ""
config *.visualizer.*.radioVisualizer.displayAntennaLobes true
config *.visualizer.*.dataLinkVisualizer.displayLinks true
config *.visualizer.*.mobilityVisualizer.displayMovementTrails true
config *.visualizer.*.mobilityVisualizer.movementTrailLineWidth 1
config *.visualizer.*.mobilityVisualizer.trailLength 3000
config **.ttxStart_max 30s
config **.ttxIdle_min 10s
config **.ttxIdle_max 25s
config **.Ntw 2
config **.Ntx 45
config **.ttwDuration 550s

vector 0 Florasat_Individual_Sats.satellite[0].dlkDSL.mac "Satellite Position when Repetition Received" ETV
vector 1 Florasat_Individual_Sats.satellite[0].dlkDSL.mac "Repetition Position for Node 238 at Satellite" ETV
vector 2 Florasat_Individual_Sats.satellite[0].dlkDSL.mac "All Nodes Repetition Generation Delay at Satellite" ETV
vector 3 Florasat_Individual_Sats.satellite[0].dlkDSL.mac "Repetition Generation Delay for Node 238 at Satellite" ETV
vector 4 Florasat_Individual_Sats.satellite[0].dlkDSL.mac "All Nodes Message Generation Delay at Satellite" ETV
vector 5 Florasat_Individual_Sats.satellite[0].dlkDSL.mac "Message Generation Delay for Node 238 at Satellite" ETV
vector 6 Florasat_Individual_Sats.satellite[0].net.packetHandler "packets received" ETV
vector 7 Florasat_Individual_Sats.satellite[0].net.packetHandler "dropped unroutable" ETV
vector 8 Florasat_Individual_Sats.satellite[0].net.packetHandler "packets dropped" ETV
vector 9 Florasat_Individual_Sats.satellite[0].dlkDSL.mac "Repetition Position for Node 358 at Satellite" ETV
vector 10 Florasat_Individual_Sats.satellite[0].dlkDSL.mac "Repetition Generation Delay for Node 358 at Satellite" ETV
vector 11 Florasat_Individual_Sats.satellite[0].dlkDSL.mac "Message Generation Delay for Node 358 at Satellite" ETV
vector 12 Florasat_Individual_Sats.satellite[0].dlkDSL.mac "Repetition Position for Node 463 at Satellite" ETV
vector 13 Florasat_Individual_Sats.satellite[0].dlkDSL.mac "Repetition Generation Delay for Node 463 at Satellite" ETV
vector 14 Florasat_Individual_Sats.satellite[0].dlkDSL.mac "Message Generation Delay for Node 463 at Satellite" ETV
vector 15 Florasat_Individual_Sats.satellite[0].dlkDSL.mac "Repetition Position for Node 268 at Satellite" ETV
vector 16 Florasat_Individual_Sats.satellite[0].dlkDSL.mac "Repetition Generation Delay for Node 268 at Satellite" ETV
vector 17 Florasat_Individual_Sats.satellite[0].dlkDSL.mac "Message Generation Delay for Node 268 at Satellite" ETV
vector 18 Florasat_Individual_Sats.satellite[0].dlkDSL.mac "Repetition Position for Node 343 at Satellite" ETV
vector 19 Florasat_Individual_Sats.satellite[0].dlkDSL.mac "Repetition Generation Delay for Node 343 at Satellite" ETV
vector 20 Florasat_Individual_Sats.satellite[0].dlkDSL.mac "Message Generation Delay for Node 343 at Satellite" ETV
vector 21 Florasat_Individual_Sats.satellite[0].dlkDSL.mac "Repetition Position for Node 328 at Satellite" ETV
vector 22 Florasat_Individual_Sats.satellite[0].dlkDSL.mac "Repetition Generation Delay for Node 328 at Satellite" ETV
vector 23 Florasat_Individual_Sats.satellite[0].dlkDSL.mac "Message Generation Delay for Node 328 at Satellite" ETV
vector 24 Florasat_Individual_Sats.satellite[0].dlkDSL.mac "Repetition Position for Node 73 at Satellite" ETV
vector 25 Florasat_Individual_Sats.satellite[0].dlkDSL.mac "Repetition Generation Delay for Node 73 at Satellite" ETV
vector 26 Florasat_Individual_Sats.satellite[0].dlkDSL.mac "Message Generation Delay for Node 73 at Satellite" ETV
vector 27 Florasat_Individual_Sats.satellite[0].dlkDSL.mac "Repetition Position for Node 193 at Satellite" ETV
vector 28 Florasat_Individual_Sats.satellite[0].dlkDSL.mac "Repetition Generation Delay for Node 193 at Satellite" ETV
vector 29 Florasat_Individual_Sats.satellite[0].dlkDSL.mac "Message Generation Delay for Node 193 at Satellite" ETV
vector 30 Florasat_Individual_Sats.satellite[0].dlkDSL.mac "Repetition Position for Node 58 at Satellite" ETV
vector 31 Florasat_Individual_Sats.satellite[0].dlkDSL.mac "Repetition Generation Delay for Node 58 at Satellite" ETV
vector 32 Florasat_Individual_Sats.satellite[0].dlkDSL.mac "Message Generation Delay for Node 58 at Satellite" ETV
vector 33 Florasat_Individual_Sats.satellite[0].dlkDSL.mac "Repetition Position for Node 313 at Satellite" ETV
vector 34 Florasat_Individual_Sats.satellite[0].dlkDSL.mac "Repetition Generation Delay for Node 313 at Satellite" ETV
vector 35 Florasat_Individual_Sats.satellite[0].dlkDSL.mac "Message Generation Delay for Node 313 at Satellite" ETV
vector 36 Florasat_Individual_Sats.satellite[0].dlkDSL.mac "Repetition Position for Node 298 at Satellite" ETV
vector 37 Florasat_Individual_Sats.satellite[0].dlkDSL.mac "Repetition Generation Delay for Node 298 at Satellite" ETV
vector 38 Florasat_Individual_Sats.satellite[0].dlkDSL.mac "Message Generation Delay for Node 298 at Satellite" ETV
vector 39 Florasat_Individual_Sats.satellite[0].dlkDSL.mac "Repetition Position for Node 223 at Satellite" ETV
vector 40 Florasat_Individual_Sats.satellite[0].dlkDSL.mac "Repetition Generation Delay for Node 223 at Satellite" ETV
vector 41 Florasat_Individual_Sats.satellite[0].dlkDSL.mac "Message Generation Delay for Node 223 at Satellite" ETV
vector 42 Florasat_Individual_Sats.satellite[0].dlkDSL.mac "Repetition Position for Node 118 at Satellite" ETV
vector 43 Florasat_Individual_Sats.satellite[0].dlkDSL.mac "Repetition Generation Delay for Node 118 at Satellite" ETV
vector 44 Florasat_Individual_Sats.satellite[0].dlkDSL.mac "Message Generation Delay for Node 118 at Satellite" ETV
vector 45 Florasat_Individual_Sats.satellite[0].dlkDSL.mac "Repetition Position for Node 133 at Satellite" ETV
vector 46 Florasat_Individual_Sats.satellite[0].dlkDSL.mac "Repetition Generation Delay for Node 133 at Satellite" ETV
vector 47 Florasat_Individual_Sats.satellite[0].dlkDSL.mac "Message Generation Delay for Node 133 at Satellite" ETV
vector 48 Florasat_Individual_Sats.satellite[0].dlkDSL.mac "Repetition Position for Node 403 at Satellite" ETV
vector 49 Florasat_Individual_Sats.satellite[0].dlkDSL.mac "Repetition Generation Delay for Node 403 at Satellite" ETV
vector 50 Florasat_Individual_Sats.satellite[0].dlkDSL.mac "Message Generation Delay for Node 403 at Satellite" ETV
vector 51 Florasat_Individual_Sats.satellite[0].dlkDSL.mac "Repetition Position for Node 103 at Satellite" ETV
vector 52 Florasat_Individual_Sats.satellite[0].dlkDSL.mac "Repetition Generation Delay for Node 103 at Satellite" ETV
vector 53 Florasat_Individual_Sats.satellite[0].dlkDSL.mac "Message Generation Delay for Node 103 at Satellite" ETV
vector 54 Florasat_Individual_Sats.satellite[0].dlkDSL.mac "Repetition Position for Node 373 at Satellite" ETV
vector 55 Florasat_Individual_Sats.satellite[0].dlkDSL.mac "Repetition Generation Delay for Node 373 at Satellite" ETV
vector 56 Florasat_Individual_Sats.satellite[0].dlkDSL.mac "Message Generation Delay for Node 373 at Satellite" ETV
vector 57 Florasat_Individual_Sats.satellite[0].dlkDSL.mac "Repetition Position for Node 388 at Satellite" ETV
vector 58 Florasat_Individual_Sats.satellite[0].dlkDSL.mac "Repetition Generation Delay for Node 388 at Satellite" ETV
vector 59 Florasat_Individual_Sats.satellite[0].dlkDSL.mac "Message Generation Delay for Node 388 at Satellite" ETV
vector 60 Florasat_Individual_Sats.satellite[0].dlkDSL.mac "Repetition Position for Node 88 at Satellite" ETV
vector 61 Florasat_Individual_Sats.satellite[0].dlkDSL.mac "Repetition Generation Delay for Node 88 at Satellite" ETV
vector 62 Florasat_Individual_Sats.satellite[0].dlkDSL.mac "Message Generation Delay for Node 88 at Satellite" ETV
vector 63 Florasat_Individual_Sats.satellite[0].dlkDSL.mac "Repetition Position for Node 283 at Satellite" ETV
vector 64 Florasat_Individual_Sats.satellite[0].dlkDSL.mac "Repetition Generation Delay for Node 283 at Satellite" ETV
vector 65 Florasat_Individual_Sats.satellite[0].dlkDSL.mac "Message Generation Delay for Node 283 at Satellite" ETV
vector 66 Florasat_Individual_Sats.satellite[0].dlkDSL.mac "Repetition Position for Node 418 at Satellite" ETV
vector 67 Florasat_Individual_Sats.satellite[0].dlkDSL.mac "Repetition Generation Delay for Node 418 at Satellite" ETV
vector 68 Florasat_Individual_Sats.satellite[0].dlkDSL.mac "Message Generation Delay for Node 418 at Satellite" ETV
vector 69 Florasat_Individual_Sats.satellite[0].dlkDSL.mac "Repetition Position for Node 208 at Satellite" ETV
vector 70 Florasat_Individual_Sats.satellite[0].dlkDSL.mac "Repetition Generation Delay for Node 208 at Satellite" ETV
vector 71 Florasat_Individual_Sats.satellite[0].dlkDSL.mac "Message Generation Delay for Node 208 at Satellite" ETV
vector 72 Florasat_Individual_Sats.satellite[0].dlkDSL.mac "Repetition Position for Node 253 at Satellite" ETV
vector 73 Florasat_Individual_Sats.satellite[0].dlkDSL.mac "Repetition Generation Delay for Node 253 at Satellite" ETV
vector 74 Florasat_Individual_Sats.satellite[0].dlkDSL.mac "Message Generation Delay for Node 253 at Satellite" ETV
vector 75 Florasat_Individual_Sats.satellite[0].dlkDSL.mac "Repetition Position for Node 163 at Satellite" ETV
vector 76 Florasat_Individual_Sats.satellite[0].dlkDSL.mac "Repetition Generation Delay for Node 163 at Satellite" ETV
vector 77 Florasat_Individual_Sats.satellite[0].dlkDSL.mac "Message Generation Delay for Node 163 at Satellite" ETV
vector 78 Florasat_Individual_Sats.satellite[0].dlkDSL.mac "Repetition Position for Node 148 at Satellite" ETV
vector 79 Florasat_Individual_Sats.satellite[0].dlkDSL.mac "Repetition Generation Delay for Node 148 at Satellite" ETV
vector 80 Florasat_Individual_Sats.satellite[0].dlkDSL.mac "Message Generation Delay for Node 148 at Satellite" ETV
vector 81 Florasat_Individual_Sats.satellite[0].dlkDSL.mac "Repetition Position for Node 433 at Satellite" ETV
vector 82 Florasat_Individual_Sats.satellite[0].dlkDSL.mac "Repetition Generation Delay for Node 433 at Satellite" ETV
vector 83 Florasat_Individual_Sats.satellite[0].dlkDSL.mac "Message Generation Delay for Node 433 at Satellite" ETV
0	18632 4419 142 4344 5.62590601601 471.3476237443 166 180 180 29880 5378400
1	23051 211 142 4344 5.62590601601 471.3476237443 8 180 180 1440 259200
2	23262 6365 142 4344 5.62590601601 471.3476237443 166 4.62590601601 470.3476237443 33385.084672872 8325794.0930017
3	29627 303 142 4344 5.62590601601 471.3476237443 8 4.62590601601 470.3476237443 2704.9969626648 1118218.7476998
4	29930 977 142 3469 5.62590601601 288.53436418454 26 4.62590601601 287.53436418454 2964.8831834946 478316.79995849
5	30907 34 142 142 5.62590601601 5.62590601601 1 4.62590601601 4.62590601601 4.62590601601 21.399006468958
6	30941 4311 143 4345 5.62590601601 471.3476237443 166 1 166 13861 1538571
7	35252 4311 143 4345 5.62590601601 471.3476237443 166 1 166 13861 1538571
8	39563 4311 143 4345 5.62590601601 471.3476237443 166 1 166 13861 1538571
9	43874 369 239 3254 21.74690295936 261.58943327837 14 180 180 2520 453600
10	44243 546 239 3254 21.74690295936 261.58943327837 14 20.74690295936 260.58943327837 2130.0421584136 403604.18363293
11	44789 37 239 239 21.74690295936 21.74690295936 1 20.74690295936 20.74690295936 20.74690295936 430.4339824051
12	44826 272 269 3473 24.69192750732 288.74641918442 10 180 180 1800 324000
13	45098 386 269 3473 24.69192750732 288.74641918442 10 23.69192750732 287.74641918442 1610.1635798002 331908.52650934
14	45484 37 269 269 24.69192750732 24.69192750732 1 23.69192750732 23.69192750732 23.69192750732 561.30742901211
15	45521 274 308 3279 28.70385345764 262.5895132962 10 180 180 1800 324000
16	45795 390 308 3279 28.70385345764 262.5895132962 10 27.70385345764 261.5895132962 1474.3757688667 272312.36547625
17	46185 37 308 308 28.70385345764 28.70385345764 1 27.70385345764 27.70385345764 27.70385345764 767.50349640239
18	46222 355 417 2812 39.88199818757 227.30178455352 13 180 180 2340 421200
19	46577 505 417 2812 39.88199818757 227.30178455352 13 38.88199818757 226.30178455352 1651.5009438757 254185.23797521
20	47082 37 417 417 39.88199818757 39.88199818757 1 38.88199818757 38.88199818757 38.88199818757 1511.8097830582
21	47119 333 484 3397 46.75840632388 279.1746169315 12 180 180 2160 388800
22	47452 475 484 3397 46.75840632388 279.1746169315 12 45.75840632388 278.1746169315 2103.5528111674 422617.18321457
23	47927 37 484 484 46.75840632388 46.75840632388 1 45.75840632388 45.75840632388 45.75840632388 2093.8317493013
24	47964 189 627 2175 52.31903038047 177.04112222943 7 180 180 1260 226800
25	48153 268 627 2175 52.31903038047 177.04112222943 7 51.31903038047 176.04112222943 842.66152590531 115557.48198313
26	48421 37 627 627 52.31903038047 52.31903038047 1 51.31903038047 51.31903038047 51.31903038047 2633.6428791916
27	48458 166 668 3869 56.09687398364 361.83794605955 6 180 180 1080 194400
28	48624 237 668 3869 56.09687398364 361.83794605955 6 55.09687398364 360.83794605955 1237.1591893105 318948.87452619
29	48861 37 668 668 56.09687398364 56.09687398364 1 55.09687398364 55.09687398364 55.09687398364 3035.6655227691
30	48898 138 696 3169 58.23321137287 252.53189762415 5 180 180 900 162000
31	49036 197 696 3169 58.23321137287 252.53189762415 5 57.23321137287 251.53189762415 763.90284807483 139039.63321321
32	49233 37 696 696 58.23321137287 58.23321137287 1 57.23321137287 57.23321137287 57.23321137287 3275.6404840516
33	49270 195 1027 3369 89.65544754233 272.98782044499 7 180 180 1260 226800
34	49465 278 1027 3369 89.65544754233 272.98782044499 7 88.65544754233 271.98782044499 1345.8113540432 285579.40092051
35	49743 38 1027 1027 89.65544754233 89.65544754233 1 88.65544754233 88.65544754233 88.65544754233 7859.7883789308
36	49781 249 1049 3878 91.76213860622 363.7173504405 9 180 180 1620 291600
37	50030 354 1049 3878 91.76213860622 363.7173504405 9 90.76213860622 362.7173504405 2036.8807318385 528847.22660947
38	50384 38 1049 1049 91.76213860622 91.76213860622 1 90.76213860622 90.76213860622 90.76213860622 8237.7658043747
39	50422 304 1123 3975 98.1472292886 396.83766929377 11 180 180 1980 356400
40	50726 432 1123 3975 98.1472292886 396.83766929377 11 97.1472292886 395.83766929377 3006.697485522 917054.48646801
41	51158 36 1123 1123 98.1472292886 98.1472292886 1 97.1472292886 97.1472292886 97.1472292886 9437.5841584518
42	51194 56 1270 2712 104.26359575767 218.73851432059 2 180 180 360 64800
43	51250 80 1270 2712 104.26359575767 218.73851432059 2 103.26359575767 217.73851432059 321.00211007826 58073.430827341
44	51330 40 1270 1270 104.26359575767 104.26359575767 1 103.26359575767 103.26359575767 103.26359575767 10663.370208803
45	51370 111 1354 3000 110.76181171804 245.03478227176 4 180 180 720 129600
46	51481 158 1354 3000 110.76181171804 245.03478227176 4 109.76181171804 244.03478227176 684.21876629344 127076.3761057
47	51639 40 1354 1354 110.76181171804 110.76181171804 1 109.76181171804 109.76181171804 109.76181171804 12047.655311626
48	51679 223 1404 3622 115.26076504322 303.23204102753 8 180 180 1440 259200
49	51902 318 1404 3622 115.26076504322 303.23204102753 8 114.26076504322 302.23204102753 1720.7770636428 401472.55787217
50	52220 40 1404 1404 115.26076504322 115.26076504322 1 114.26076504322 114.26076504322 114.26076504322 13055.522428262
51	52260 56 1562 2532 131.27924776347 202.36458575996 2 180 180 360 64800
52	52316 80 1562 2532 131.27924776347 202.36458575996 2 130.27924776347 201.36458575996 331.64383352343 57520.378796096
53	52396 40 1562 1562 131.27924776347 131.27924776347 1 130.27924776347 130.27924776347 130.27924776347 16972.682397816
54	52436 168 1716 3235 145.63177040772 257.63138000032 6 180 180 1080 194400
55	52604 240 1716 3235 145.63177040772 257.63138000032 6 144.63177040772 256.63138000032 1199.3341281236 249206.07971893
56	52844 40 1716 1716 145.63177040772 145.63177040772 1 144.63177040772 144.63177040772 144.63177040772 20918.349011271
57	52884 112 1737 3269 147.43945291144 262.03994532226 4 180 180 720 129600
58	52996 160 1737 3269 147.43945291144 262.03994532226 4 146.43945291144 261.03994532226 823.7977252074 178950.34115001
59	53156 40 1737 1737 147.43945291144 147.43945291144 1 146.43945291144 146.43945291144 146.43945291144 21444.513369002
60	53196 84 1963 2958 159.53550585759 241.39197677238 3 180 180 540 97200
61	53280 120 1963 2958 159.53550585759 241.39197677238 3 158.53550585759 240.39197677238 608.86831547703 126996.96241057
62	53400 40 1963 1963 159.53550585759 159.53550585759 1 158.53550585759 158.53550585759 158.53550585759 25133.506617522
63	53440 84 2013 2984 162.70353912254 243.12418251643 3 180 180 540 97200
64	53524 120 2013 2984 162.70353912254 243.12418251643 3 161.70353912254 242.12418251643 597.01229467903 122092.43358467
65	53644 40 2013 2013 162.70353912254 162.70353912254 1 161.70353912254 161.70353912254 161.70353912254 26148.034564755
66	53684 251 2020 4200 163.42385632213 448.08555611869 9 180 180 1620 291600
67	53935 358 2020 4200 163.42385632213 448.08555611869 9 162.42385632213 447.08555611869 3077.0925361905 1132836.4481806
68	54293 40 2020 2020 163.42385632213 163.42385632213 1 162.42385632213 162.42385632213 162.42385632213 26381.509102552
69	54333 140 2085 3299 169.78303018835 264.49940306594 5 180 180 900 162000
70	54473 200 2085 3299 169.78303018835 264.49940306594 5 168.78303018835 263.49940306594 1121.4462655209 257009.32831182
71	54673 40 2085 2085 169.78303018835 169.78303018835 1 168.78303018835 168.78303018835 168.78303018835 28487.711279561
72	54713 139 2276 3510 186.79724499178 297.17810071947 5 180 180 900 162000
73	54852 198 2276 3510 186.79724499178 297.17810071947 5 185.79724499178 296.17810071947 1214.7658368684 304009.45106879
74	55050 40 2276 2276 186.79724499178 186.79724499178 1 185.79724499178 185.79724499178 185.79724499178 34520.616246536
75	55090 28 2969 2969 242.29273043683 242.29273043683 1 180 180 180 32400
76	55118 40 2969 2969 242.29273043683 242.29273043683 1 241.29273043683 241.29273043683 241.29273043683 58222.181761661
77	55158 40 2969 2969 242.29273043683 242.29273043683 1 241.29273043683 241.29273043683 241.29273043683 58222.181761661
78	55198 28 3050 3050 249.55334316338 249.55334316338 1 180 180 180 32400
79	55226 40 3050 3050 249.55334316338 249.55334316338 1 248.55334316338 248.55334316338 248.55334316338 61778.764397693
80	55266 40 3050 3050 249.55334316338 249.55334316338 1 248.55334316338 248.55334316338 248.55334316338 61778.764397693
81	55306 28 3469 3469 288.53436418454 288.53436418454 1 180 180 180 32400
82	55334 40 3469 3469 288.53436418454 288.53436418454 1 287.53436418454 287.53436418454 287.53436418454 82676.010587008
83	55374 40 3469 3469 288.53436418454 288.53436418454 1 287.53436418454 287.53436418454 287.53436418454 82676.010587008

