file 53865 1779838375                                           
version 3
run General-2-20260527-01:32:51-720927
attr configname General
attr datetime 20260527-01:32:51
attr datetimef 20260527-013251
attr experiment General
attr inifile Test_MLModel_1.ini
attr iterationvars $0=15937
attr iterationvarsd 15937
attr iterationvarsf 15937-
attr measurement $0=15937
attr network Florasat.Test_Individual.Florasat_Individual_Sats
attr processid 720927
attr repetition 2
attr replication #2
attr resultdir results
attr runnumber 2
attr seedset 2
config *.satellite[0].NoradModule.raan 185
config *.stats_altitude 670
config *.stats_raan 185
config image-path ../../images:../../../../samples/inet4.5_2/images
config network Florasat.Test_Individual.Florasat_Individual_Sats
config rng-class cMersenneTwister
config *.**.result-recording-modes -
config **.result-recording-modes -
config **.statistic-recording true
config **.scalar-recording true
config **.vector-recording true
config **.vector-record-eventnumbers true
config repeat 10
config seed-0-mt 15937
config sim-time-limit 749s
config simtime-resolution -11
config **.stats_altitude 670
config **.stats_raan 185
config *.radioMedium.backgroundNoise.power -110dBm
config *.radioMedium.mediumLimitCache.centerFrequency 868MHz
config *.radioMedium.mediumLimitCache.maxTransmissionDuration 4s
config *.radioMedium.mediumLimitCache.minInterferenceTime 0s
config **.numSatellites 1
config *.satellite[*].mobilityType "\"Sat_Mob_SatelliteMobility_Standalone\""
config *.satellite[*].noradModuleType "\"Sat_Mob_NoradA\""
config **.satellite[*].**.initFromDisplayString false
config *.satellite[*].mobility.faceForward true
config *.satellite[*].mobility.updateInterval 20s
config *.satellite[*].NoradModule.satName "\"FLoRaSat\""
config *.satellite[*].NoradModule.satIndex -1
config *.satellite[*].NoradModule.baseYear 20
config *.satellite[*].NoradModule.baseDay 1.5
config *.satellite[*].NoradModule.planes 1
config *.satellite[*].NoradModule.satPerPlane 1
config *.satellite[*].NoradModule.eccentricity 0.000001
config *.satellite[*].NoradModule.inclination 98
config *.satellite[*].NoradModule.altitude 670
config *.satellite[0].NoradModule.raan 185
config *.satellite[0].NoradModule.meanAnomaly 195
config *.satellite[*].phyDSL.radio.receiver.enableCollisionOverlap true
config *.satellite[*].phyDSL.radio.receiver.minCollisionOverlap 0s
config *.satellite[*].phyDSL.radio.antenna.typename ConstantGainAntenna
config *.satellite[*].phyDSL.radio.antenna.mobilityModule "\"^.^.^.mobility\""
config *.satellite[*].phyISL.radio.antenna.mobilityModule "\"^.^.^.mobility\""
config *.satellite[*].phyGSL.radio.antenna.mobilityModule "\"^.^.^.mobility\""
config *.satellite[*].phyDSL.radio.antenna.gain 12dB
config *.satellite[*].net.routingType "\"Null_Routing\""
config *.terminal[*].net.routingType "\"Ter_Null_Routing\""
config *.**.numGroundLinks 40
config *.satellite[*].**.interfaceTableModule "\"\""
config **.radioMedium.typename LoRaMedium
config **.radioMedium.analogModel.typename LoRaAnalogModel
config **.intraPlaneIslDisabled false
config **.interPlaneIslDisabled false
config **.numTerminals 30
config *.terminal[*].phy.radio.antenna.mobilityModule "\"^.^.^.mob\""
config *.terminal[*].dlk.mac.interfaceTableModule "\"\""
config *.terminal[*].dlk.energySourceModule "\"\""
config *.terminal[*].dlk.mac.LoRaTP "intuniform(12, 14)"
config *.terminal[*].dlk.mac.LoRaSF "intuniform(10, 12)"
config *.terminal[*].dlk.mac.useMLBox true
config *.terminal[*].dlk.mac.mlBox.modelPath "\"/home/ylnner/Documents/omnet++/omnetpp-6.3.0/projects/florasat_v4_ult_routing/simulations/Test_Individual/mlmodels/transformer_scripted.pt\""
config **.numberOfPacketsToSend 0
config **.timeToFirstPacket 1s
config **.timeToNextPacket 50s
config *.terminal[0].mob.radius 0.0
config *.terminal[0].mob.centerLatitude 54.978
config *.terminal[0].mob.centerLongitude -1.617
config *.terminal[1].mob.radius 0.0
config *.terminal[1].mob.centerLatitude 52.630
config *.terminal[1].mob.centerLongitude -1.139
config *.terminal[2].mob.radius 0.0
config *.terminal[2].mob.centerLatitude 52.612
config *.terminal[2].mob.centerLongitude -6.295
config *.terminal[3].mob.radius 0.0
config *.terminal[3].mob.centerLatitude 47.243
config *.terminal[3].mob.centerLongitude 6.024
config *.terminal[4].mob.radius 0.0
config *.terminal[4].mob.centerLatitude 43.610
config *.terminal[4].mob.centerLongitude 3.876
config *.terminal[5].mob.radius 0.0
config *.terminal[5].mob.centerLatitude 49.443
config *.terminal[5].mob.centerLongitude 1.099
config *.terminal[6].mob.radius 0.0
config *.terminal[6].mob.centerLatitude 37.992
config *.terminal[6].mob.centerLongitude -1.130
config *.terminal[7].mob.radius 0.0
config *.terminal[7].mob.centerLatitude 40.965
config *.terminal[7].mob.centerLongitude -5.664
config *.terminal[8].mob.radius 0.0
config *.terminal[8].mob.centerLatitude 40.657
config *.terminal[8].mob.centerLongitude -7.914
config *.terminal[9].mob.radius 0.0
config *.terminal[9].mob.centerLatitude 51.340
config *.terminal[9].mob.centerLongitude 12.373
config *.terminal[10].mob.radius 0.0
config *.terminal[10].mob.centerLatitude 51.455
config *.terminal[10].mob.centerLongitude 7.011
config *.terminal[11].mob.radius 0.0
config *.terminal[11].mob.centerLatitude 49.452
config *.terminal[11].mob.centerLongitude 11.076
config *.terminal[12].mob.radius 0.0
config *.terminal[12].mob.centerLatitude 43.769
config *.terminal[12].mob.centerLongitude 11.255
config *.terminal[13].mob.radius 0.0
config *.terminal[13].mob.centerLatitude 41.117
config *.terminal[13].mob.centerLongitude 16.871
config *.terminal[14].mob.radius 0.0
config *.terminal[14].mob.centerLatitude 52.132
config *.terminal[14].mob.centerLongitude 5.291
config *.terminal[15].mob.radius 0.0
config *.terminal[15].mob.centerLatitude 50.411
config *.terminal[15].mob.centerLongitude 4.444
config *.terminal[16].mob.radius 0.0
config *.terminal[16].mob.centerLatitude 47.559
config *.terminal[16].mob.centerLongitude 7.588
config *.terminal[17].mob.radius 0.0
config *.terminal[17].mob.centerLatitude 55.403
config *.terminal[17].mob.centerLongitude 10.402
config *.terminal[18].mob.radius 0.0
config *.terminal[18].mob.centerLatitude 59.858
config *.terminal[18].mob.centerLongitude 17.638
config *.terminal[19].mob.radius 0.0
config *.terminal[19].mob.centerLatitude 60.451
config *.terminal[19].mob.centerLongitude 22.266
config *.terminal[20].mob.radius 0.0
config *.terminal[20].mob.centerLatitude 56.325
config *.terminal[20].mob.centerLongitude 22.349
config *.terminal[21].mob.radius 0.0
config *.terminal[21].mob.centerLatitude 49.883
config *.terminal[21].mob.centerLongitude 18.568
config *.terminal[22].mob.radius 0.0
config *.terminal[22].mob.centerLatitude 47.531
config *.terminal[22].mob.centerLongitude 21.627
config *.terminal[23].mob.radius 0.0
config *.terminal[23].mob.centerLatitude 44.179
config *.terminal[23].mob.centerLongitude 28.649
config *.terminal[24].mob.radius 0.0
config *.terminal[24].mob.centerLatitude 45.327
config *.terminal[24].mob.centerLongitude 14.442
config *.terminal[25].mob.radius 0.0
config *.terminal[25].mob.centerLatitude 40.694
config *.terminal[25].mob.centerLongitude 30.400
config *.terminal[26].mob.radius 0.0
config *.terminal[26].mob.centerLatitude 37.066
config *.terminal[26].mob.centerLongitude 37.383
config *.terminal[27].mob.radius 0.0
config *.terminal[27].mob.centerLatitude 64.836
config *.terminal[27].mob.centerLongitude -23.708
config *.terminal[28].mob.radius 0.0
config *.terminal[28].mob.centerLatitude 28.099
config *.terminal[28].mob.centerLongitude -17.113
config *.terminal[29].mob.radius 0.0
config *.terminal[29].mob.centerLatitude 34.921
config *.terminal[29].mob.centerLongitude 33.623
config **.numStations 3
config **.numStations 3
config *.station[0].mobility.latitude 55.752
config *.station[0].mobility.longitude 37.616
config *.station[0].cityName "\"Moscow\""
config *.station[0].groundStationId 7
config *.station[0].routerAddr "\"10.0.0.29\""
config *.station[0].serving "\"10.0.0.29\""
config *.station[1].mobility.latitude 28.652
config *.station[1].mobility.longitude 77.231
config *.station[1].cityName "\"Delhi\""
config *.station[1].groundStationId 11
config *.station[1].routerAddr "\"10.0.0.45\""
config *.station[1].serving "\"10.0.0.45\""
config *.station[2].mobility.latitude 25.35
config *.station[2].mobility.longitude 51.24
config *.station[2].cityName "\"Katar\""
config *.station[2].groundStationId 19
config *.station[2].routerAddr "\"10.0.0.77\""
config *.station[2].serving "\"10.0.0.77\""
config *.visualizer.canvasVisualizer.mediumVisualizer.typename ""
config *.visualizer.*.radioVisualizer.displayAntennaLobes true
config *.visualizer.*.dataLinkVisualizer.displayLinks true
config *.visualizer.*.mobilityVisualizer.displayMovementTrails true
config *.visualizer.*.mobilityVisualizer.movementTrailLineWidth 1
config *.visualizer.*.mobilityVisualizer.trailLength 3000
config **.ttxStart_max 30s
config **.ttxIdle_min 10s
config **.ttxIdle_max 25s
config **.Ntw 2
config **.Ntx 45
config **.ttwDuration 550s

vector 0 Florasat_Individual_Sats.satellite[0].dlkDSL.mac "Satellite Position when Repetition Received" ETV
vector 1 Florasat_Individual_Sats.satellite[0].dlkDSL.mac "Repetition Position for Node 463 at Satellite" ETV
vector 2 Florasat_Individual_Sats.satellite[0].dlkDSL.mac "All Nodes Repetition Generation Delay at Satellite" ETV
vector 3 Florasat_Individual_Sats.satellite[0].dlkDSL.mac "Repetition Generation Delay for Node 463 at Satellite" ETV
vector 4 Florasat_Individual_Sats.satellite[0].dlkDSL.mac "All Nodes Message Generation Delay at Satellite" ETV
vector 5 Florasat_Individual_Sats.satellite[0].dlkDSL.mac "Message Generation Delay for Node 463 at Satellite" ETV
vector 6 Florasat_Individual_Sats.satellite[0].net.packetHandler "packets received" ETV
vector 7 Florasat_Individual_Sats.satellite[0].net.packetHandler "dropped unroutable" ETV
vector 8 Florasat_Individual_Sats.satellite[0].net.packetHandler "packets dropped" ETV
vector 9 Florasat_Individual_Sats.satellite[0].dlkDSL.mac "Repetition Position for Node 133 at Satellite" ETV
vector 10 Florasat_Individual_Sats.satellite[0].dlkDSL.mac "Repetition Generation Delay for Node 133 at Satellite" ETV
vector 11 Florasat_Individual_Sats.satellite[0].dlkDSL.mac "Message Generation Delay for Node 133 at Satellite" ETV
vector 12 Florasat_Individual_Sats.satellite[0].dlkDSL.mac "Repetition Position for Node 208 at Satellite" ETV
vector 13 Florasat_Individual_Sats.satellite[0].dlkDSL.mac "Repetition Generation Delay for Node 208 at Satellite" ETV
vector 14 Florasat_Individual_Sats.satellite[0].dlkDSL.mac "Message Generation Delay for Node 208 at Satellite" ETV
vector 15 Florasat_Individual_Sats.satellite[0].dlkDSL.mac "Repetition Position for Node 88 at Satellite" ETV
vector 16 Florasat_Individual_Sats.satellite[0].dlkDSL.mac "Repetition Generation Delay for Node 88 at Satellite" ETV
vector 17 Florasat_Individual_Sats.satellite[0].dlkDSL.mac "Message Generation Delay for Node 88 at Satellite" ETV
vector 18 Florasat_Individual_Sats.satellite[0].dlkDSL.mac "Repetition Position for Node 418 at Satellite" ETV
vector 19 Florasat_Individual_Sats.satellite[0].dlkDSL.mac "Repetition Generation Delay for Node 418 at Satellite" ETV
vector 20 Florasat_Individual_Sats.satellite[0].dlkDSL.mac "Message Generation Delay for Node 418 at Satellite" ETV
vector 21 Florasat_Individual_Sats.satellite[0].dlkDSL.mac "Repetition Position for Node 73 at Satellite" ETV
vector 22 Florasat_Individual_Sats.satellite[0].dlkDSL.mac "Repetition Generation Delay for Node 73 at Satellite" ETV
vector 23 Florasat_Individual_Sats.satellite[0].dlkDSL.mac "Message Generation Delay for Node 73 at Satellite" ETV
vector 24 Florasat_Individual_Sats.satellite[0].dlkDSL.mac "Repetition Position for Node 283 at Satellite" ETV
vector 25 Florasat_Individual_Sats.satellite[0].dlkDSL.mac "Repetition Generation Delay for Node 283 at Satellite" ETV
vector 26 Florasat_Individual_Sats.satellite[0].dlkDSL.mac "Message Generation Delay for Node 283 at Satellite" ETV
vector 27 Florasat_Individual_Sats.satellite[0].dlkDSL.mac "Repetition Position for Node 343 at Satellite" ETV
vector 28 Florasat_Individual_Sats.satellite[0].dlkDSL.mac "Repetition Generation Delay for Node 343 at Satellite" ETV
vector 29 Florasat_Individual_Sats.satellite[0].dlkDSL.mac "Message Generation Delay for Node 343 at Satellite" ETV
vector 30 Florasat_Individual_Sats.satellite[0].dlkDSL.mac "Repetition Position for Node 193 at Satellite" ETV
vector 31 Florasat_Individual_Sats.satellite[0].dlkDSL.mac "Repetition Generation Delay for Node 193 at Satellite" ETV
vector 32 Florasat_Individual_Sats.satellite[0].dlkDSL.mac "Message Generation Delay for Node 193 at Satellite" ETV
vector 33 Florasat_Individual_Sats.satellite[0].dlkDSL.mac "Repetition Position for Node 403 at Satellite" ETV
vector 34 Florasat_Individual_Sats.satellite[0].dlkDSL.mac "Repetition Generation Delay for Node 403 at Satellite" ETV
vector 35 Florasat_Individual_Sats.satellite[0].dlkDSL.mac "Message Generation Delay for Node 403 at Satellite" ETV
vector 36 Florasat_Individual_Sats.satellite[0].dlkDSL.mac "Repetition Position for Node 103 at Satellite" ETV
vector 37 Florasat_Individual_Sats.satellite[0].dlkDSL.mac "Repetition Generation Delay for Node 103 at Satellite" ETV
vector 38 Florasat_Individual_Sats.satellite[0].dlkDSL.mac "Message Generation Delay for Node 103 at Satellite" ETV
vector 39 Florasat_Individual_Sats.satellite[0].dlkDSL.mac "Repetition Position for Node 328 at Satellite" ETV
vector 40 Florasat_Individual_Sats.satellite[0].dlkDSL.mac "Repetition Generation Delay for Node 328 at Satellite" ETV
vector 41 Florasat_Individual_Sats.satellite[0].dlkDSL.mac "Message Generation Delay for Node 328 at Satellite" ETV
vector 42 Florasat_Individual_Sats.satellite[0].dlkDSL.mac "Repetition Position for Node 58 at Satellite" ETV
vector 43 Florasat_Individual_Sats.satellite[0].dlkDSL.mac "Repetition Generation Delay for Node 58 at Satellite" ETV
vector 44 Florasat_Individual_Sats.satellite[0].dlkDSL.mac "Message Generation Delay for Node 58 at Satellite" ETV
vector 45 Florasat_Individual_Sats.satellite[0].dlkDSL.mac "Repetition Position for Node 313 at Satellite" ETV
vector 46 Florasat_Individual_Sats.satellite[0].dlkDSL.mac "Repetition Generation Delay for Node 313 at Satellite" ETV
vector 47 Florasat_Individual_Sats.satellite[0].dlkDSL.mac "Message Generation Delay for Node 313 at Satellite" ETV
vector 48 Florasat_Individual_Sats.satellite[0].dlkDSL.mac "Repetition Position for Node 223 at Satellite" ETV
vector 49 Florasat_Individual_Sats.satellite[0].dlkDSL.mac "Repetition Generation Delay for Node 223 at Satellite" ETV
vector 50 Florasat_Individual_Sats.satellite[0].dlkDSL.mac "Message Generation Delay for Node 223 at Satellite" ETV
vector 51 Florasat_Individual_Sats.satellite[0].dlkDSL.mac "Repetition Position for Node 358 at Satellite" ETV
vector 52 Florasat_Individual_Sats.satellite[0].dlkDSL.mac "Repetition Generation Delay for Node 358 at Satellite" ETV
vector 53 Florasat_Individual_Sats.satellite[0].dlkDSL.mac "Message Generation Delay for Node 358 at Satellite" ETV
vector 54 Florasat_Individual_Sats.satellite[0].dlkDSL.mac "Repetition Position for Node 178 at Satellite" ETV
vector 55 Florasat_Individual_Sats.satellite[0].dlkDSL.mac "Repetition Generation Delay for Node 178 at Satellite" ETV
vector 56 Florasat_Individual_Sats.satellite[0].dlkDSL.mac "Message Generation Delay for Node 178 at Satellite" ETV
vector 57 Florasat_Individual_Sats.satellite[0].dlkDSL.mac "Repetition Position for Node 388 at Satellite" ETV
vector 58 Florasat_Individual_Sats.satellite[0].dlkDSL.mac "Repetition Generation Delay for Node 388 at Satellite" ETV
vector 59 Florasat_Individual_Sats.satellite[0].dlkDSL.mac "Message Generation Delay for Node 388 at Satellite" ETV
vector 60 Florasat_Individual_Sats.satellite[0].dlkDSL.mac "Repetition Position for Node 373 at Satellite" ETV
vector 61 Florasat_Individual_Sats.satellite[0].dlkDSL.mac "Repetition Generation Delay for Node 373 at Satellite" ETV
vector 62 Florasat_Individual_Sats.satellite[0].dlkDSL.mac "Message Generation Delay for Node 373 at Satellite" ETV
vector 63 Florasat_Individual_Sats.satellite[0].dlkDSL.mac "Repetition Position for Node 268 at Satellite" ETV
vector 64 Florasat_Individual_Sats.satellite[0].dlkDSL.mac "Repetition Generation Delay for Node 268 at Satellite" ETV
vector 65 Florasat_Individual_Sats.satellite[0].dlkDSL.mac "Message Generation Delay for Node 268 at Satellite" ETV
vector 66 Florasat_Individual_Sats.satellite[0].dlkDSL.mac "Repetition Position for Node 433 at Satellite" ETV
vector 67 Florasat_Individual_Sats.satellite[0].dlkDSL.mac "Repetition Generation Delay for Node 433 at Satellite" ETV
vector 68 Florasat_Individual_Sats.satellite[0].dlkDSL.mac "Message Generation Delay for Node 433 at Satellite" ETV
vector 69 Florasat_Individual_Sats.satellite[0].dlkDSL.mac "Repetition Position for Node 118 at Satellite" ETV
vector 70 Florasat_Individual_Sats.satellite[0].dlkDSL.mac "Repetition Generation Delay for Node 118 at Satellite" ETV
vector 71 Florasat_Individual_Sats.satellite[0].dlkDSL.mac "Message Generation Delay for Node 118 at Satellite" ETV
vector 72 Florasat_Individual_Sats.satellite[0].dlkDSL.mac "Repetition Position for Node 238 at Satellite" ETV
vector 73 Florasat_Individual_Sats.satellite[0].dlkDSL.mac "Repetition Generation Delay for Node 238 at Satellite" ETV
vector 74 Florasat_Individual_Sats.satellite[0].dlkDSL.mac "Message Generation Delay for Node 238 at Satellite" ETV
vector 75 Florasat_Individual_Sats.satellite[0].dlkDSL.mac "Repetition Position for Node 253 at Satellite" ETV
vector 76 Florasat_Individual_Sats.satellite[0].dlkDSL.mac "Repetition Generation Delay for Node 253 at Satellite" ETV
vector 77 Florasat_Individual_Sats.satellite[0].dlkDSL.mac "Message Generation Delay for Node 253 at Satellite" ETV
0	17940 4332 147 4253 5.02853092019 455.55176125817 163 180 180 29340 5281200
1	22272 178 147 2861 5.02853092019 229.57357795659 7 180 180 1260 226800
2	22450 6243 147 4253 5.02853092019 455.55176125817 163 4.02853092019 454.55176125817 31087.779769191 7445578.7471655
3	28693 255 147 2861 5.02853092019 229.57357795659 7 4.02853092019 228.57357795659 564.51085834581 78915.540525303
4	28948 887 147 3285 5.02853092019 261.79726676194 24 4.02853092019 260.79726676194 2234.6195372054 321078.8392678
5	29835 34 147 147 5.02853092019 5.02853092019 1 4.02853092019 4.02853092019 4.02853092019 16.229061374927
6	29869 4224 148 4254 5.02853092019 455.55176125817 163 1 163 13366 1456894
7	34093 4224 148 4254 5.02853092019 455.55176125817 163 1 163 13366 1456894
8	38317 4224 148 4254 5.02853092019 455.55176125817 163 1 163 13366 1456894
9	42541 185 201 2800 12.7319289843 225.2975262207 7 180 180 1260 226800
10	42726 273 201 2800 12.7319289843 225.2975262207 7 11.7319289843 224.2975262207 1019.9689248591 178640.82192217
11	42999 35 201 201 12.7319289843 12.7319289843 1 11.7319289843 11.7319289843 11.7319289843 137.63815769266
12	43034 246 286 3619 23.23130256789 309.98953283476 9 180 180 1620 291600
13	43280 351 286 3619 23.23130256789 309.98953283476 9 22.23130256789 308.98953283476 1558.7975467775 365510.30590042
14	43631 37 286 286 23.23130256789 23.23130256789 1 22.23130256789 22.23130256789 22.23130256789 494.23081386507
15	43668 194 293 3490 24.00857149836 297.78569575379 7 180 180 1260 226800
16	43862 277 293 3490 24.00857149836 297.78569575379 7 23.00857149836 296.78569575379 1256.9971604964 284770.24554778
17	44139 37 293 293 24.00857149836 24.00857149836 1 23.00857149836 23.00857149836 23.00857149836 529.39436239514
18	44176 138 358 4058 30.41348028057 412.43472995297 5 180 180 900 162000
19	44314 197 358 4058 30.41348028057 412.43472995297 5 29.41348028057 411.43472995297 1345.9558540624 491997.23783517
20	44511 37 358 358 30.41348028057 30.41348028057 1 29.41348028057 29.41348028057 29.41348028057 865.15282221548
21	44548 274 362 2950 30.43620679987 239.99771309428 10 180 180 1800 324000
22	44822 390 362 2950 30.43620679987 239.99771309428 10 29.43620679987 238.99771309428 1428.5987078113 254434.48705978
23	45212 37 362 362 30.43620679987 30.43620679987 1 29.43620679987 29.43620679987 29.43620679987 866.49027076471
24	45249 188 413 3430 35.46134453676 286.26925939872 7 180 180 1260 226800
25	45437 267 413 3430 35.46134453676 286.26925939872 7 34.46134453676 285.26925939872 1021.6030942244 215526.09156604
26	45704 37 413 413 35.46134453676 35.46134453676 1 34.46134453676 34.46134453676 34.46134453676 1187.5842672813
27	45741 356 421 3051 35.96023122178 248.57890297523 13 180 180 2340 421200
28	46097 507 421 3051 35.96023122178 248.57890297523 13 34.96023122178 247.57890297523 1899.419679898 335493.21950081
29	46604 37 421 421 35.96023122178 35.96023122178 1 34.96023122178 34.96023122178 34.96023122178 1222.2177670803
30	46641 248 683 3712 53.83766027111 348.23979871524 9 180 180 1620 291600
31	46889 353 683 3712 53.83766027111 348.23979871524 9 52.83766027111 347.23979871524 2321.7008299518 667841.18303921
32	47242 37 683 683 53.83766027111 53.83766027111 1 52.83766027111 52.83766027111 52.83766027111 2791.8183429252
33	47279 26 819 819 66.52315273163 66.52315273163 1 180 180 180 32400
34	47305 37 819 819 66.52315273163 66.52315273163 1 65.52315273163 65.52315273163 65.52315273163 4293.2835438925
35	47342 37 819 819 66.52315273163 66.52315273163 1 65.52315273163 65.52315273163 65.52315273163 4293.2835438925
36	47379 276 834 3470 68.4743038378 295.1877864147 10 180 180 1800 324000
37	47655 393 834 3470 68.4743038378 295.1877864147 10 67.4743038378 294.1877864147 1853.121788238 393691.69265816
38	48048 35 834 834 68.4743038378 68.4743038378 1 67.4743038378 67.4743038378 67.4743038378 4552.7816783958
39	48083 332 844 2896 68.99857778213 233.80098827412 12 180 180 2160 388800
40	48415 474 844 2896 68.99857778213 233.80098827412 12 67.99857778213 232.80098827412 1811.0156701297 305748.04946276
41	48889 37 844 844 68.99857778213 68.99857778213 1 67.99857778213 67.99857778213 67.99857778213 4623.8065803924
42	48926 332 910 3441 74.87259423121 288.39278023684 12 180 180 2160 388800
43	49258 473 910 3441 74.87259423121 288.39278023684 12 73.87259423121 287.39278023684 2114.2966179712 432232.23192036
44	49731 37 910 910 74.87259423121 74.87259423121 1 73.87259423121 73.87259423121 73.87259423121 5457.160178449
45	49768 223 1140 3421 95.10061668807 283.80215934936 8 180 180 1440 259200
46	49991 318 1140 3421 95.10061668807 283.80215934936 8 94.10061668807 282.80215934936 1680.5859330598 379827.24924872
47	50309 38 1140 1140 95.10061668807 95.10061668807 1 94.10061668807 94.10061668807 94.10061668807 8854.9260610751
48	50347 112 1362 3844 109.35481377508 365.15743576551 4 180 180 720 129600
49	50459 160 1362 3844 109.35481377508 365.15743576551 4 108.35481377508 364.15743576551 1019.0899730561 304908.87744031
50	50619 40 1362 1362 109.35481377508 109.35481377508 1 108.35481377508 108.35481377508 108.35481377508 11740.765668232
51	50659 251 1560 3332 127.07901534569 269.92509317996 9 180 180 1620 291600
52	50910 358 1560 3332 127.07901534569 269.92509317996 9 126.07901534569 268.92509317996 1780.8148807834 370065.13122705
53	51268 40 1560 1560 127.07901534569 127.07901534569 1 126.07901534569 126.07901534569 126.07901534569 15895.918110539
54	51308 84 1566 3238 127.97125729945 256.99499496006 3 180 180 540 97200
55	51392 120 1566 3238 127.97125729945 256.99499496006 3 126.97125729945 255.99499496006 604.16928205742 130585.91801658
56	51512 40 1566 1566 127.97125729945 127.97125729945 1 126.97125729945 126.97125729945 126.97125729945 16121.700180203
57	51552 112 1591 3248 130.75796379651 257.64740228944 4 180 180 720 129600
58	51664 160 1591 3248 130.75796379651 257.64740228944 4 129.75796379651 256.64740228944 802.57368712829 170867.18873324
59	51824 40 1591 1591 130.75796379651 130.75796379651 1 129.75796379651 129.75796379651 129.75796379651 16837.129168616
60	51864 139 1937 3372 153.39137177327 275.47896707542 5 180 180 900 162000
61	52003 198 1937 3372 153.39137177327 275.47896707542 5 152.39137177327 274.47896707542 1119.4713042651 259137.75255629
62	52201 40 1937 1937 153.39137177327 153.39137177327 1 152.39137177327 152.39137177327 152.39137177327 23223.130190939
63	52241 196 1967 3390 156.38113077491 277.58772748285 7 180 180 1260 226800
64	52437 280 1967 3390 156.38113077491 277.58772748285 7 155.38113077491 276.58772748285 1553.4823284301 354506.15069247
65	52717 40 1967 1967 156.38113077491 156.38113077491 1 155.38113077491 155.38113077491 155.38113077491 24143.29580089
66	52757 111 2042 3405 164.4876134452 282.29740774706 4 180 180 720 129600
67	52868 158 2042 3405 164.4876134452 282.29740774706 4 163.4876134452 281.29740774706 884.6398942575 205618.08627433
68	53026 38 2042 2042 164.4876134452 164.4876134452 1 163.4876134452 163.4876134452 163.4876134452 26728.199750007
69	53064 56 2077 2254 166.86394548853 182.44570344215 2 180 180 360 64800
70	53120 80 2077 2254 166.86394548853 182.44570344215 2 165.86394548853 181.44570344215 347.30964893068 60433.391710639
71	53200 40 2077 2077 166.86394548853 166.86394548853 1 165.86394548853 165.86394548853 165.86394548853 27510.848413022
72	53240 196 2907 4253 235.45665639315 455.55176125817 7 180 180 1260 226800
73	53436 280 2907 4253 235.45665639315 455.55176125817 7 234.45665639315 454.55176125817 2773.3356849631 1132519.3964335
74	53716 40 2907 2907 235.45665639315 235.45665639315 1 234.45665639315 234.45665639315 234.45665639315 54969.923727056
75	53756 28 3285 3285 261.79726676194 261.79726676194 1 180 180 180 32400
76	53784 40 3285 3285 261.79726676194 261.79726676194 1 260.79726676194 260.79726676194 260.79726676194 68015.214350498
77	53824 40 3285 3285 261.79726676194 261.79726676194 1 260.79726676194 260.79726676194 260.79726676194 68015.214350498

