version 3
run General-8-20260527-01:33:18-720927
attr configname General
attr datetime 20260527-01:33:18
attr datetimef 20260527-013318
attr experiment General
attr inifile Test_MLModel_1.ini
attr iterationvars $0=76328
attr iterationvarsd 76328
attr iterationvarsf 76328-
attr measurement $0=76328
attr network Florasat.Test_Individual.Florasat_Individual_Sats
attr processid 720927
attr repetition 8
attr replication #8
attr resultdir results
attr runnumber 8
attr seedset 8
config *.satellite[0].NoradModule.raan 185
config *.stats_altitude 670
config *.stats_raan 185
config image-path ../../images:../../../../samples/inet4.5_2/images
config network Florasat.Test_Individual.Florasat_Individual_Sats
config rng-class cMersenneTwister
config *.**.result-recording-modes -
config **.result-recording-modes -
config **.statistic-recording true
config **.scalar-recording true
config **.vector-recording true
config **.vector-record-eventnumbers true
config repeat 10
config seed-0-mt 76328
config sim-time-limit 749s
config simtime-resolution -11
config **.stats_altitude 670
config **.stats_raan 185
config *.radioMedium.backgroundNoise.power -110dBm
config *.radioMedium.mediumLimitCache.centerFrequency 868MHz
config *.radioMedium.mediumLimitCache.maxTransmissionDuration 4s
config *.radioMedium.mediumLimitCache.minInterferenceTime 0s
config **.numSatellites 1
config *.satellite[*].mobilityType "\"Sat_Mob_SatelliteMobility_Standalone\""
config *.satellite[*].noradModuleType "\"Sat_Mob_NoradA\""
config **.satellite[*].**.initFromDisplayString false
config *.satellite[*].mobility.faceForward true
config *.satellite[*].mobility.updateInterval 20s
config *.satellite[*].NoradModule.satName "\"FLoRaSat\""
config *.satellite[*].NoradModule.satIndex -1
config *.satellite[*].NoradModule.baseYear 20
config *.satellite[*].NoradModule.baseDay 1.5
config *.satellite[*].NoradModule.planes 1
config *.satellite[*].NoradModule.satPerPlane 1
config *.satellite[*].NoradModule.eccentricity 0.000001
config *.satellite[*].NoradModule.inclination 98
config *.satellite[*].NoradModule.altitude 670
config *.satellite[0].NoradModule.raan 185
config *.satellite[0].NoradModule.meanAnomaly 195
config *.satellite[*].phyDSL.radio.receiver.enableCollisionOverlap true
config *.satellite[*].phyDSL.radio.receiver.minCollisionOverlap 0s
config *.satellite[*].phyDSL.radio.antenna.typename ConstantGainAntenna
config *.satellite[*].phyDSL.radio.antenna.mobilityModule "\"^.^.^.mobility\""
config *.satellite[*].phyISL.radio.antenna.mobilityModule "\"^.^.^.mobility\""
config *.satellite[*].phyGSL.radio.antenna.mobilityModule "\"^.^.^.mobility\""
config *.satellite[*].phyDSL.radio.antenna.gain 12dB
config *.satellite[*].net.routingType "\"Null_Routing\""
config *.terminal[*].net.routingType "\"Ter_Null_Routing\""
config *.**.numGroundLinks 40
config *.satellite[*].**.interfaceTableModule "\"\""
config **.radioMedium.typename LoRaMedium
config **.radioMedium.analogModel.typename LoRaAnalogModel
config **.intraPlaneIslDisabled false
config **.interPlaneIslDisabled false
config **.numTerminals 30
config *.terminal[*].phy.radio.antenna.mobilityModule "\"^.^.^.mob\""
config *.terminal[*].dlk.mac.interfaceTableModule "\"\""
config *.terminal[*].dlk.energySourceModule "\"\""
config *.terminal[*].dlk.mac.LoRaTP "intuniform(12, 14)"
config *.terminal[*].dlk.mac.LoRaSF "intuniform(10, 12)"
config *.terminal[*].dlk.mac.useMLBox true
config *.terminal[*].dlk.mac.mlBox.modelPath "\"/home/ylnner/Documents/omnet++/omnetpp-6.3.0/projects/florasat_v4_ult_routing/simulations/Test_Individual/mlmodels/transformer_scripted.pt\""
config **.numberOfPacketsToSend 0
config **.timeToFirstPacket 1s
config **.timeToNextPacket 50s
config *.terminal[0].mob.radius 0.0
config *.terminal[0].mob.centerLatitude 54.978
config *.terminal[0].mob.centerLongitude -1.617
config *.terminal[1].mob.radius 0.0
config *.terminal[1].mob.centerLatitude 52.630
config *.terminal[1].mob.centerLongitude -1.139
config *.terminal[2].mob.radius 0.0
config *.terminal[2].mob.centerLatitude 52.612
config *.terminal[2].mob.centerLongitude -6.295
config *.terminal[3].mob.radius 0.0
config *.terminal[3].mob.centerLatitude 47.243
config *.terminal[3].mob.centerLongitude 6.024
config *.terminal[4].mob.radius 0.0
config *.terminal[4].mob.centerLatitude 43.610
config *.terminal[4].mob.centerLongitude 3.876
config *.terminal[5].mob.radius 0.0
config *.terminal[5].mob.centerLatitude 49.443
config *.terminal[5].mob.centerLongitude 1.099
config *.terminal[6].mob.radius 0.0
config *.terminal[6].mob.centerLatitude 37.992
config *.terminal[6].mob.centerLongitude -1.130
config *.terminal[7].mob.radius 0.0
config *.terminal[7].mob.centerLatitude 40.965
config *.terminal[7].mob.centerLongitude -5.664
config *.terminal[8].mob.radius 0.0
config *.terminal[8].mob.centerLatitude 40.657
config *.terminal[8].mob.centerLongitude -7.914
config *.terminal[9].mob.radius 0.0
config *.terminal[9].mob.centerLatitude 51.340
config *.terminal[9].mob.centerLongitude 12.373
config *.terminal[10].mob.radius 0.0
config *.terminal[10].mob.centerLatitude 51.455
config *.terminal[10].mob.centerLongitude 7.011
config *.terminal[11].mob.radius 0.0
config *.terminal[11].mob.centerLatitude 49.452
config *.terminal[11].mob.centerLongitude 11.076
config *.terminal[12].mob.radius 0.0
config *.terminal[12].mob.centerLatitude 43.769
config *.terminal[12].mob.centerLongitude 11.255
config *.terminal[13].mob.radius 0.0
config *.terminal[13].mob.centerLatitude 41.117
config *.terminal[13].mob.centerLongitude 16.871
config *.terminal[14].mob.radius 0.0
config *.terminal[14].mob.centerLatitude 52.132
config *.terminal[14].mob.centerLongitude 5.291
config *.terminal[15].mob.radius 0.0
config *.terminal[15].mob.centerLatitude 50.411
config *.terminal[15].mob.centerLongitude 4.444
config *.terminal[16].mob.radius 0.0
config *.terminal[16].mob.centerLatitude 47.559
config *.terminal[16].mob.centerLongitude 7.588
config *.terminal[17].mob.radius 0.0
config *.terminal[17].mob.centerLatitude 55.403
config *.terminal[17].mob.centerLongitude 10.402
config *.terminal[18].mob.radius 0.0
config *.terminal[18].mob.centerLatitude 59.858
config *.terminal[18].mob.centerLongitude 17.638
config *.terminal[19].mob.radius 0.0
config *.terminal[19].mob.centerLatitude 60.451
config *.terminal[19].mob.centerLongitude 22.266
config *.terminal[20].mob.radius 0.0
config *.terminal[20].mob.centerLatitude 56.325
config *.terminal[20].mob.centerLongitude 22.349
config *.terminal[21].mob.radius 0.0
config *.terminal[21].mob.centerLatitude 49.883
config *.terminal[21].mob.centerLongitude 18.568
config *.terminal[22].mob.radius 0.0
config *.terminal[22].mob.centerLatitude 47.531
config *.terminal[22].mob.centerLongitude 21.627
config *.terminal[23].mob.radius 0.0
config *.terminal[23].mob.centerLatitude 44.179
config *.terminal[23].mob.centerLongitude 28.649
config *.terminal[24].mob.radius 0.0
config *.terminal[24].mob.centerLatitude 45.327
config *.terminal[24].mob.centerLongitude 14.442
config *.terminal[25].mob.radius 0.0
config *.terminal[25].mob.centerLatitude 40.694
config *.terminal[25].mob.centerLongitude 30.400
config *.terminal[26].mob.radius 0.0
config *.terminal[26].mob.centerLatitude 37.066
config *.terminal[26].mob.centerLongitude 37.383
config *.terminal[27].mob.radius 0.0
config *.terminal[27].mob.centerLatitude 64.836
config *.terminal[27].mob.centerLongitude -23.708
config *.terminal[28].mob.radius 0.0
config *.terminal[28].mob.centerLatitude 28.099
config *.terminal[28].mob.centerLongitude -17.113
config *.terminal[29].mob.radius 0.0
config *.terminal[29].mob.centerLatitude 34.921
config *.terminal[29].mob.centerLongitude 33.623
config **.numStations 3
config **.numStations 3
config *.station[0].mobility.latitude 55.752
config *.station[0].mobility.longitude 37.616
config *.station[0].cityName "\"Moscow\""
config *.station[0].groundStationId 7
config *.station[0].routerAddr "\"10.0.0.29\""
config *.station[0].serving "\"10.0.0.29\""
config *.station[1].mobility.latitude 28.652
config *.station[1].mobility.longitude 77.231
config *.station[1].cityName "\"Delhi\""
config *.station[1].groundStationId 11
config *.station[1].routerAddr "\"10.0.0.45\""
config *.station[1].serving "\"10.0.0.45\""
config *.station[2].mobility.latitude 25.35
config *.station[2].mobility.longitude 51.24
config *.station[2].cityName "\"Katar\""
config *.station[2].groundStationId 19
config *.station[2].routerAddr "\"10.0.0.77\""
config *.station[2].serving "\"10.0.0.77\""
config *.visualizer.canvasVisualizer.mediumVisualizer.typename ""
config *.visualizer.*.radioVisualizer.displayAntennaLobes true
config *.visualizer.*.dataLinkVisualizer.displayLinks true
config *.visualizer.*.mobilityVisualizer.displayMovementTrails true
config *.visualizer.*.mobilityVisualizer.movementTrailLineWidth 1
config *.visualizer.*.mobilityVisualizer.trailLength 3000
config **.ttxStart_max 30s
config **.ttxIdle_min 10s
config **.ttxIdle_max 25s
config **.Ntw 2
config **.Ntx 45
config **.ttwDuration 550s

vector 0 Florasat_Individual_Sats.satellite[0].dlkDSL.mac "Satellite Position when Repetition Received" ETV
vector 1 Florasat_Individual_Sats.satellite[0].dlkDSL.mac "Repetition Position for Node 463 at Satellite" ETV
vector 2 Florasat_Individual_Sats.satellite[0].dlkDSL.mac "All Nodes Repetition Generation Delay at Satellite" ETV
vector 3 Florasat_Individual_Sats.satellite[0].dlkDSL.mac "Repetition Generation Delay for Node 463 at Satellite" ETV
vector 4 Florasat_Individual_Sats.satellite[0].dlkDSL.mac "All Nodes Message Generation Delay at Satellite" ETV
vector 5 Florasat_Individual_Sats.satellite[0].dlkDSL.mac "Message Generation Delay for Node 463 at Satellite" ETV
vector 6 Florasat_Individual_Sats.satellite[0].net.packetHandler "packets received" ETV
vector 7 Florasat_Individual_Sats.satellite[0].net.packetHandler "dropped unroutable" ETV
vector 8 Florasat_Individual_Sats.satellite[0].net.packetHandler "packets dropped" ETV
vector 9 Florasat_Individual_Sats.satellite[0].dlkDSL.mac "Repetition Position for Node 268 at Satellite" ETV
vector 10 Florasat_Individual_Sats.satellite[0].dlkDSL.mac "Repetition Generation Delay for Node 268 at Satellite" ETV
vector 11 Florasat_Individual_Sats.satellite[0].dlkDSL.mac "Message Generation Delay for Node 268 at Satellite" ETV
vector 12 Florasat_Individual_Sats.satellite[0].dlkDSL.mac "Repetition Position for Node 103 at Satellite" ETV
vector 13 Florasat_Individual_Sats.satellite[0].dlkDSL.mac "Repetition Generation Delay for Node 103 at Satellite" ETV
vector 14 Florasat_Individual_Sats.satellite[0].dlkDSL.mac "Message Generation Delay for Node 103 at Satellite" ETV
vector 15 Florasat_Individual_Sats.satellite[0].dlkDSL.mac "Repetition Position for Node 88 at Satellite" ETV
vector 16 Florasat_Individual_Sats.satellite[0].dlkDSL.mac "Repetition Generation Delay for Node 88 at Satellite" ETV
vector 17 Florasat_Individual_Sats.satellite[0].dlkDSL.mac "Message Generation Delay for Node 88 at Satellite" ETV
vector 18 Florasat_Individual_Sats.satellite[0].dlkDSL.mac "Repetition Position for Node 313 at Satellite" ETV
vector 19 Florasat_Individual_Sats.satellite[0].dlkDSL.mac "Repetition Generation Delay for Node 313 at Satellite" ETV
vector 20 Florasat_Individual_Sats.satellite[0].dlkDSL.mac "Message Generation Delay for Node 313 at Satellite" ETV
vector 21 Florasat_Individual_Sats.satellite[0].dlkDSL.mac "Repetition Position for Node 343 at Satellite" ETV
vector 22 Florasat_Individual_Sats.satellite[0].dlkDSL.mac "Repetition Generation Delay for Node 343 at Satellite" ETV
vector 23 Florasat_Individual_Sats.satellite[0].dlkDSL.mac "Message Generation Delay for Node 343 at Satellite" ETV
vector 24 Florasat_Individual_Sats.satellite[0].dlkDSL.mac "Repetition Position for Node 358 at Satellite" ETV
vector 25 Florasat_Individual_Sats.satellite[0].dlkDSL.mac "Repetition Generation Delay for Node 358 at Satellite" ETV
vector 26 Florasat_Individual_Sats.satellite[0].dlkDSL.mac "Message Generation Delay for Node 358 at Satellite" ETV
vector 27 Florasat_Individual_Sats.satellite[0].dlkDSL.mac "Repetition Position for Node 328 at Satellite" ETV
vector 28 Florasat_Individual_Sats.satellite[0].dlkDSL.mac "Repetition Generation Delay for Node 328 at Satellite" ETV
vector 29 Florasat_Individual_Sats.satellite[0].dlkDSL.mac "Message Generation Delay for Node 328 at Satellite" ETV
vector 30 Florasat_Individual_Sats.satellite[0].dlkDSL.mac "Repetition Position for Node 283 at Satellite" ETV
vector 31 Florasat_Individual_Sats.satellite[0].dlkDSL.mac "Repetition Generation Delay for Node 283 at Satellite" ETV
vector 32 Florasat_Individual_Sats.satellite[0].dlkDSL.mac "Message Generation Delay for Node 283 at Satellite" ETV
vector 33 Florasat_Individual_Sats.satellite[0].dlkDSL.mac "Repetition Position for Node 58 at Satellite" ETV
vector 34 Florasat_Individual_Sats.satellite[0].dlkDSL.mac "Repetition Generation Delay for Node 58 at Satellite" ETV
vector 35 Florasat_Individual_Sats.satellite[0].dlkDSL.mac "Message Generation Delay for Node 58 at Satellite" ETV
vector 36 Florasat_Individual_Sats.satellite[0].dlkDSL.mac "Repetition Position for Node 373 at Satellite" ETV
vector 37 Florasat_Individual_Sats.satellite[0].dlkDSL.mac "Repetition Generation Delay for Node 373 at Satellite" ETV
vector 38 Florasat_Individual_Sats.satellite[0].dlkDSL.mac "Message Generation Delay for Node 373 at Satellite" ETV
vector 39 Florasat_Individual_Sats.satellite[0].dlkDSL.mac "Repetition Position for Node 223 at Satellite" ETV
vector 40 Florasat_Individual_Sats.satellite[0].dlkDSL.mac "Repetition Generation Delay for Node 223 at Satellite" ETV
vector 41 Florasat_Individual_Sats.satellite[0].dlkDSL.mac "Message Generation Delay for Node 223 at Satellite" ETV
vector 42 Florasat_Individual_Sats.satellite[0].dlkDSL.mac "Repetition Position for Node 73 at Satellite" ETV
vector 43 Florasat_Individual_Sats.satellite[0].dlkDSL.mac "Repetition Generation Delay for Node 73 at Satellite" ETV
vector 44 Florasat_Individual_Sats.satellite[0].dlkDSL.mac "Message Generation Delay for Node 73 at Satellite" ETV
vector 45 Florasat_Individual_Sats.satellite[0].dlkDSL.mac "Repetition Position for Node 388 at Satellite" ETV
vector 46 Florasat_Individual_Sats.satellite[0].dlkDSL.mac "Repetition Generation Delay for Node 388 at Satellite" ETV
vector 47 Florasat_Individual_Sats.satellite[0].dlkDSL.mac "Message Generation Delay for Node 388 at Satellite" ETV
vector 48 Florasat_Individual_Sats.satellite[0].dlkDSL.mac "Repetition Position for Node 208 at Satellite" ETV
vector 49 Florasat_Individual_Sats.satellite[0].dlkDSL.mac "Repetition Generation Delay for Node 208 at Satellite" ETV
vector 50 Florasat_Individual_Sats.satellite[0].dlkDSL.mac "Message Generation Delay for Node 208 at Satellite" ETV
vector 51 Florasat_Individual_Sats.satellite[0].dlkDSL.mac "Repetition Position for Node 238 at Satellite" ETV
vector 52 Florasat_Individual_Sats.satellite[0].dlkDSL.mac "Repetition Generation Delay for Node 238 at Satellite" ETV
vector 53 Florasat_Individual_Sats.satellite[0].dlkDSL.mac "Message Generation Delay for Node 238 at Satellite" ETV
vector 54 Florasat_Individual_Sats.satellite[0].dlkDSL.mac "Repetition Position for Node 403 at Satellite" ETV
vector 55 Florasat_Individual_Sats.satellite[0].dlkDSL.mac "Repetition Generation Delay for Node 403 at Satellite" ETV
vector 56 Florasat_Individual_Sats.satellite[0].dlkDSL.mac "Message Generation Delay for Node 403 at Satellite" ETV
vector 57 Florasat_Individual_Sats.satellite[0].dlkDSL.mac "Repetition Position for Node 163 at Satellite" ETV
vector 58 Florasat_Individual_Sats.satellite[0].dlkDSL.mac "Repetition Generation Delay for Node 163 at Satellite" ETV
vector 59 Florasat_Individual_Sats.satellite[0].dlkDSL.mac "Message Generation Delay for Node 163 at Satellite" ETV
vector 60 Florasat_Individual_Sats.satellite[0].dlkDSL.mac "Repetition Position for Node 118 at Satellite" ETV
vector 61 Florasat_Individual_Sats.satellite[0].dlkDSL.mac "Repetition Generation Delay for Node 118 at Satellite" ETV
vector 62 Florasat_Individual_Sats.satellite[0].dlkDSL.mac "Message Generation Delay for Node 118 at Satellite" ETV
vector 63 Florasat_Individual_Sats.satellite[0].dlkDSL.mac "Repetition Position for Node 418 at Satellite" ETV
vector 64 Florasat_Individual_Sats.satellite[0].dlkDSL.mac "Repetition Generation Delay for Node 418 at Satellite" ETV
vector 65 Florasat_Individual_Sats.satellite[0].dlkDSL.mac "Message Generation Delay for Node 418 at Satellite" ETV
vector 66 Florasat_Individual_Sats.satellite[0].dlkDSL.mac "Repetition Position for Node 433 at Satellite" ETV
vector 67 Florasat_Individual_Sats.satellite[0].dlkDSL.mac "Repetition Generation Delay for Node 433 at Satellite" ETV
vector 68 Florasat_Individual_Sats.satellite[0].dlkDSL.mac "Message Generation Delay for Node 433 at Satellite" ETV
vector 69 Florasat_Individual_Sats.satellite[0].dlkDSL.mac "Repetition Position for Node 193 at Satellite" ETV
vector 70 Florasat_Individual_Sats.satellite[0].dlkDSL.mac "Repetition Generation Delay for Node 193 at Satellite" ETV
vector 71 Florasat_Individual_Sats.satellite[0].dlkDSL.mac "Message Generation Delay for Node 193 at Satellite" ETV
vector 72 Florasat_Individual_Sats.satellite[0].dlkDSL.mac "Repetition Position for Node 448 at Satellite" ETV
vector 73 Florasat_Individual_Sats.satellite[0].dlkDSL.mac "Repetition Generation Delay for Node 448 at Satellite" ETV
vector 74 Florasat_Individual_Sats.satellite[0].dlkDSL.mac "Message Generation Delay for Node 448 at Satellite" ETV
vector 75 Florasat_Individual_Sats.satellite[0].dlkDSL.mac "Repetition Position for Node 148 at Satellite" ETV
vector 76 Florasat_Individual_Sats.satellite[0].dlkDSL.mac "Repetition Generation Delay for Node 148 at Satellite" ETV
vector 77 Florasat_Individual_Sats.satellite[0].dlkDSL.mac "Message Generation Delay for Node 148 at Satellite" ETV
vector 78 Florasat_Individual_Sats.satellite[0].dlkDSL.mac "Repetition Position for Node 298 at Satellite" ETV
vector 79 Florasat_Individual_Sats.satellite[0].dlkDSL.mac "Repetition Generation Delay for Node 298 at Satellite" ETV
vector 80 Florasat_Individual_Sats.satellite[0].dlkDSL.mac "Message Generation Delay for Node 298 at Satellite" ETV
vector 81 Florasat_Individual_Sats.satellite[0].dlkDSL.mac "Repetition Position for Node 133 at Satellite" ETV
vector 82 Florasat_Individual_Sats.satellite[0].dlkDSL.mac "Repetition Generation Delay for Node 133 at Satellite" ETV
vector 83 Florasat_Individual_Sats.satellite[0].dlkDSL.mac "Message Generation Delay for Node 133 at Satellite" ETV
vector 84 Florasat_Individual_Sats.satellite[0].dlkDSL.mac "Repetition Position for Node 253 at Satellite" ETV
vector 85 Florasat_Individual_Sats.satellite[0].dlkDSL.mac "Repetition Generation Delay for Node 253 at Satellite" ETV
vector 86 Florasat_Individual_Sats.satellite[0].dlkDSL.mac "Message Generation Delay for Node 253 at Satellite" ETV
0	164	9.51575733781	180
0	351	29.7785287077	180
0	368	32.51435665241	180
0	385	34.15426315836	180
0	444	39.42169859184	180
0	448	39.50387152089	180
0	460	41.02840116657	180
0	475	42.09320378666	180
0	502	44.47014652535	180
0	546	48.10473546678	180
0	671	52.33022180948	180
0	729	58.24038587272	180
0	776	62.87645659752	180
0	802	64.17075853738	180
0	905	76.04265077266	180
0	930	78.97356859585	180
0	949	80.29360771406	180
0	1057	89.87847215592	180
0	1067	92.16295622399	180
0	1079	94.23827712185	180
0	1114	96.49141815201	180
0	1147	98.97944442988	180
0	1266	101.48288933038	180
0	1300	104.57205037298	180
0	1322	106.67334830615	180
0	1326	107.09083003984	180
0	1365	111.48046530544	180
0	1387	113.60450274603	180
0	1399	115.16932450811	180
0	1410	115.97773125804	180
0	1456	119.58365385131	180
0	1501	123.47157689969	180
0	1525	125.92693566637	180
0	1533	127.08326566143	180
0	1585	130.01489989519	180
0	1620	132.82000589411	180
0	1634	134.89490270557	180
0	1642	135.4765224072	180
0	1650	136.50564234415	180
0	1660	137.83399805604	180
0	1722	144.2821935098	180
0	1739	145.88939568604	180
0	1761	148.24604985298	180
0	1773	148.94022862654	180
0	1894	151.27417480683	180
0	1907	152.50215335576	180
0	1913	153.64069288228	180
0	1938	156.16558017154	180
0	1982	158.93217927138	180
0	2014	161.97479864644	180
0	2044	164.52291172174	180
0	2048	164.745651778	180
0	2060	164.93257479139	180
0	2069	165.85648238952	180
0	2097	169.3081290366	180
0	2123	172.48331182501	180
0	2140	173.83388606125	180
0	2168	176.60377950401	180
0	2182	177.62331886094	180
0	2186	177.80300476997	180
0	2213	180.72083265232	180
0	2262	183.37687541325	180
0	2267	183.58639641542	180
0	2279	185.12230786372	180
0	2293	186.2968215946	180
0	2316	187.88666823989	180
0	2346	193.42520078239	180
0	2365	194.49070992522	180
0	2376	195.46701255946	180
0	2394	196.15064035395	180
0	2419	198.22004366776	180
0	2540	201.82513541253	180
0	2570	203.83676588296	180
0	2599	206.41384401701	180
0	2625	208.93599598662	180
0	2632	209.56044587832	180
0	2657	213.78113976905	180
0	2665	214.74320527925	180
0	2720	218.56265345231	180
0	2755	221.00983924759	180
0	2770	222.25926492306	180
0	2786	224.21866924263	180
0	2795	224.80347636964	180
0	2812	226.02414524758	180
0	2825	228.35666075991	180
0	2839	230.47765817704	180
0	2843	230.48363030416	180
0	2850	231.63405812871	180
0	2872	232.48829581254	180
0	2876	233.40222474053	180
0	2883	233.87193814728	180
0	2895	235.2392915782	180
0	2906	235.73702070507	180
0	2920	237.51319548561	180
0	2943	239.361933876	180
0	2947	239.42998656749	180
0	2966	240.07023405626	180
0	2974	240.71747934439	180
0	2981	241.21581722264	180
0	2994	241.59747149788	180
0	3000	242.05392206264	180
0	3010	243.23593007344	180
0	3020	243.94317914958	180
0	3028	244.43654045209	180
0	3032	245.11698893796	180
0	3046	246.77413055035	180
0	3053	246.93279365059	180
0	3058	247.30568720951	180
0	3071	248.83323977693	180
0	3083	249.46169499999	180
0	3090	250.19752021008	180
0	3099	250.9580370597	180
0	3195	251.45126728785	180
0	3203	252.52834491724	180
0	3216	255.23086637485	180
0	3221	255.62579877969	180
0	3232	257.67138887257	180
0	3263	260.06632140482	180
0	3272	261.54904251744	180
0	3295	263.19589508691	180
0	3303	263.82666562978	180
0	3319	265.05575598676	180
0	3335	267.88308929644	180
0	3348	271.20035330643	180
0	3364	273.22919352075	180
0	3378	277.87812361787	180
0	3386	278.52459473645	180
0	3395	279.85414350464	180
0	3417	280.72828171603	180
0	3423	281.6212396112	180
0	3448	286.48054374364	180
0	3459	290.2707194756	180
0	3480	296.48640294969	180
0	3487	297.3383114555	180
0	3602	305.50605454194	180
0	3623	316.90314959368	180
0	3643	321.76118735867	180
0	3668	336.09506589343	180
0	3679	337.88411659715	180
0	3712	349.69503020696	180
0	3817	354.97783495212	180
0	3845	365.69116260685	180
0	3879	378.03865571034	180
0	3893	383.70274664663	180
0	3905	386.48658995857	180
0	3930	397.18879190148	180
0	3938	397.97106119797	180
0	4057	410.04810799721	180
0	4066	411.87002652316	180
0	4110	431.67111657436	180
0	4117	432.35658287877	180
0	4145	446.22741501537	180
0	4155	447.17639745671	180
1	164	9.51575733781	180
1	351	29.7785287077	180
1	546	48.10473546678	180
1	1387	113.60450274603	180
1	1634	134.89490270557	180
2	164	9.51575733781	8.51575733781
2	351	29.7785287077	28.7785287077
2	368	32.51435665241	31.51435665241
2	385	34.15426315836	33.15426315836
2	444	39.42169859184	38.42169859184
2	448	39.50387152089	38.50387152089
2	460	41.02840116657	40.02840116657
2	475	42.09320378666	41.09320378666
2	502	44.47014652535	43.47014652535
2	546	48.10473546678	47.10473546678
2	671	52.33022180948	51.33022180948
2	729	58.24038587272	57.24038587272
2	776	62.87645659752	61.87645659752
2	802	64.17075853738	63.17075853738
2	905	76.04265077266	75.04265077266
2	930	78.97356859585	77.97356859585
2	949	80.29360771406	79.29360771406
2	1057	89.87847215592	88.87847215592
2	1067	92.16295622399	91.16295622399
2	1079	94.23827712185	93.23827712185
2	1114	96.49141815201	95.49141815201
2	1147	98.97944442988	97.97944442988
2	1266	101.48288933038	100.48288933038
2	1300	104.57205037298	103.57205037298
2	1322	106.67334830615	105.67334830615
2	1326	107.09083003984	106.09083003984
2	1365	111.48046530544	110.48046530544
2	1387	113.60450274603	112.60450274603
2	1399	115.16932450811	114.16932450811
2	1410	115.97773125804	114.97773125804
2	1456	119.58365385131	118.58365385131
2	1501	123.47157689969	122.47157689969
2	1525	125.92693566637	124.92693566637
2	1533	127.08326566143	126.08326566143
2	1585	130.01489989519	129.01489989519
2	1620	132.82000589411	131.82000589411
2	1634	134.89490270557	133.89490270557
2	1642	135.4765224072	134.4765224072
2	1650	136.50564234415	135.50564234415
2	1660	137.83399805604	136.83399805604
2	1722	144.2821935098	143.2821935098
2	1739	145.88939568604	144.88939568604
2	1761	148.24604985298	147.24604985298
2	1773	148.94022862654	147.94022862654
2	1894	151.27417480683	150.27417480683
2	1907	152.50215335576	151.50215335576
2	1913	153.64069288228	152.64069288228
2	1938	156.16558017154	155.16558017154
2	1982	158.93217927138	157.93217927138
2	2014	161.97479864644	160.97479864644
2	2044	164.52291172174	163.52291172174
2	2048	164.745651778	163.745651778
2	2060	164.93257479139	163.93257479139
2	2069	165.85648238952	164.85648238952
2	2097	169.3081290366	168.3081290366
2	2123	172.48331182501	171.48331182501
2	2140	173.83388606125	172.83388606125
2	2168	176.60377950401	175.60377950401
2	2182	177.62331886094	176.62331886094
2	2186	177.80300476997	176.80300476997
2	2213	180.72083265232	179.72083265232
2	2262	183.37687541325	182.37687541325
2	2267	183.58639641542	182.58639641542
2	2279	185.12230786372	184.12230786372
2	2293	186.2968215946	185.2968215946
2	2316	187.88666823989	186.88666823989
2	2346	193.42520078239	192.42520078239
2	2365	194.49070992522	193.49070992522
2	2376	195.46701255946	194.46701255946
2	2394	196.15064035395	195.15064035395
2	2419	198.22004366776	197.22004366776
2	2540	201.82513541253	200.82513541253
2	2570	203.83676588296	202.83676588296
2	2599	206.41384401701	205.41384401701
2	2625	208.93599598662	207.93599598662
2	2632	209.56044587832	208.56044587832
2	2657	213.78113976905	212.78113976905
2	2665	214.74320527925	213.74320527925
2	2720	218.56265345231	217.56265345231
2	2755	221.00983924759	220.00983924759
2	2770	222.25926492306	221.25926492306
2	2786	224.21866924263	223.21866924263
2	2795	224.80347636964	223.80347636964
2	2812	226.02414524758	225.02414524758
2	2825	228.35666075991	227.35666075991
2	2839	230.47765817704	229.47765817704
2	2843	230.48363030416	229.48363030416
2	2850	231.63405812871	230.63405812871
2	2872	232.48829581254	231.48829581254
2	2876	233.40222474053	232.40222474053
2	2883	233.87193814728	232.87193814728
2	2895	235.2392915782	234.2392915782
2	2906	235.73702070507	234.73702070507
2	2920	237.51319548561	236.51319548561
2	2943	239.361933876	238.361933876
2	2947	239.42998656749	238.42998656749
2	2966	240.07023405626	239.07023405626
2	2974	240.71747934439	239.71747934439
2	2981	241.21581722264	240.21581722264
2	2994	241.59747149788	240.59747149788
2	3000	242.05392206264	241.05392206264
2	3010	243.23593007344	242.23593007344
2	3020	243.94317914958	242.94317914958
2	3028	244.43654045209	243.43654045209
2	3032	245.11698893796	244.11698893796
2	3046	246.77413055035	245.77413055035
2	3053	246.93279365059	245.93279365059
2	3058	247.30568720951	246.30568720951
2	3071	248.83323977693	247.83323977693
2	3083	249.46169499999	248.46169499999
2	3090	250.19752021008	249.19752021008
2	3099	250.9580370597	249.9580370597
2	3195	251.45126728785	250.45126728785
2	3203	252.52834491724	251.52834491724
2	3216	255.23086637485	254.23086637485
2	3221	255.62579877969	254.62579877969
2	3232	257.67138887257	256.67138887257
2	3263	260.06632140482	259.06632140482
2	3272	261.54904251744	260.54904251744
2	3295	263.19589508691	262.19589508691
2	3303	263.82666562978	262.82666562978
2	3319	265.05575598676	264.05575598676
2	3335	267.88308929644	266.88308929644
2	3348	271.20035330643	270.20035330643
2	3364	273.22919352075	272.22919352075
2	3378	277.87812361787	276.87812361787
2	3386	278.52459473645	277.52459473645
2	3395	279.85414350464	278.85414350464
2	3417	280.72828171603	279.72828171603
2	3423	281.6212396112	280.6212396112
2	3448	286.48054374364	285.48054374364
2	3459	290.2707194756	289.2707194756
2	3480	296.48640294969	295.48640294969
2	3487	297.3383114555	296.3383114555
2	3602	305.50605454194	304.50605454194
2	3623	316.90314959368	315.90314959368
2	3643	321.76118735867	320.76118735867
2	3668	336.09506589343	335.09506589343
2	3679	337.88411659715	336.88411659715
2	3712	349.69503020696	348.69503020696
2	3817	354.97783495212	353.97783495212
2	3845	365.69116260685	364.69116260685
2	3879	378.03865571034	377.03865571034
2	3893	383.70274664663	382.70274664663
2	3905	386.48658995857	385.48658995857
2	3930	397.18879190148	396.18879190148
2	3938	397.97106119797	396.97106119797
2	4057	410.04810799721	409.04810799721
2	4066	411.87002652316	410.87002652316
2	4110	431.67111657436	430.67111657436
2	4117	432.35658287877	431.35658287877
2	4145	446.22741501537	445.22741501537
2	4155	447.17639745671	446.17639745671
3	164	9.51575733781	8.51575733781
3	351	29.7785287077	28.7785287077
3	546	48.10473546678	47.10473546678
3	1387	113.60450274603	112.60450274603
3	1634	134.89490270557	133.89490270557
4	164	9.51575733781	8.51575733781
4	368	32.51435665241	31.51435665241
4	385	34.15426315836	33.15426315836
4	444	39.42169859184	38.42169859184
4	448	39.50387152089	38.50387152089
4	460	41.02840116657	40.02840116657
4	475	42.09320378666	41.09320378666
4	502	44.47014652535	43.47014652535
4	671	52.33022180948	51.33022180948
4	729	58.24038587272	57.24038587272
4	1067	92.16295622399	91.16295622399
4	1147	98.97944442988	97.97944442988
4	1326	107.09083003984	106.09083003984
4	1533	127.08326566143	126.08326566143
4	1650	136.50564234415	135.50564234415
4	1773	148.94022862654	147.94022862654
4	1913	153.64069288228	152.64069288228
4	2060	164.93257479139	163.93257479139
4	2140	173.83388606125	172.83388606125
4	2394	196.15064035395	195.15064035395
4	2419	198.22004366776	197.22004366776
4	2876	233.40222474053	232.40222474053
4	2947	239.42998656749	238.42998656749
4	3000	242.05392206264	241.05392206264
4	3010	243.23593007344	242.23593007344
4	3028	244.43654045209	243.43654045209
4	3058	247.30568720951	246.30568720951
5	164	9.51575733781	8.51575733781
6	165	9.51575733781	1
6	352	29.7785287077	2
6	369	32.51435665241	3
6	386	34.15426315836	4
6	445	39.42169859184	5
6	449	39.50387152089	6
6	461	41.02840116657	7
6	476	42.09320378666	8
6	503	44.47014652535	9
6	547	48.10473546678	10
6	672	52.33022180948	11
6	730	58.24038587272	12
6	777	62.87645659752	13
6	803	64.17075853738	14
6	906	76.04265077266	15
6	931	78.97356859585	16
6	950	80.29360771406	17
6	1058	89.87847215592	18
6	1068	92.16295622399	19
6	1080	94.23827712185	20
6	1115	96.49141815201	21
6	1148	98.97944442988	22
6	1267	101.48288933038	23
6	1301	104.57205037298	24
6	1323	106.67334830615	25
6	1327	107.09083003984	26
6	1366	111.48046530544	27
6	1388	113.60450274603	28
6	1400	115.16932450811	29
6	1411	115.97773125804	30
6	1457	119.58365385131	31
6	1502	123.47157689969	32
6	1526	125.92693566637	33
6	1534	127.08326566143	34
6	1586	130.01489989519	35
6	1621	132.82000589411	36
6	1635	134.89490270557	37
6	1643	135.4765224072	38
6	1651	136.50564234415	39
6	1661	137.83399805604	40
6	1723	144.2821935098	41
6	1740	145.88939568604	42
6	1762	148.24604985298	43
6	1774	148.94022862654	44
6	1895	151.27417480683	45
6	1908	152.50215335576	46
6	1914	153.64069288228	47
6	1939	156.16558017154	48
6	1983	158.93217927138	49
6	2015	161.97479864644	50
6	2045	164.52291172174	51
6	2049	164.745651778	52
6	2061	164.93257479139	53
6	2070	165.85648238952	54
6	2098	169.3081290366	55
6	2124	172.48331182501	56
6	2141	173.83388606125	57
6	2169	176.60377950401	58
6	2183	177.62331886094	59
6	2187	177.80300476997	60
6	2214	180.72083265232	61
6	2263	183.37687541325	62
6	2268	183.58639641542	63
6	2280	185.12230786372	64
6	2294	186.2968215946	65
6	2317	187.88666823989	66
6	2347	193.42520078239	67
6	2366	194.49070992522	68
6	2377	195.46701255946	69
6	2395	196.15064035395	70
6	2420	198.22004366776	71
6	2541	201.82513541253	72
6	2571	203.83676588296	73
6	2600	206.41384401701	74
6	2626	208.93599598662	75
6	2633	209.56044587832	76
6	2658	213.78113976905	77
6	2666	214.74320527925	78
6	2721	218.56265345231	79
6	2756	221.00983924759	80
6	2771	222.25926492306	81
6	2787	224.21866924263	82
6	2796	224.80347636964	83
6	2813	226.02414524758	84
6	2826	228.35666075991	85
6	2840	230.47765817704	86
6	2844	230.48363030416	87
6	2851	231.63405812871	88
6	2873	232.48829581254	89
6	2877	233.40222474053	90
6	2884	233.87193814728	91
6	2896	235.2392915782	92
6	2907	235.73702070507	93
6	2921	237.51319548561	94
6	2944	239.361933876	95
6	2948	239.42998656749	96
6	2967	240.07023405626	97
6	2975	240.71747934439	98
6	2982	241.21581722264	99
6	2995	241.59747149788	100
6	3001	242.05392206264	101
6	3011	243.23593007344	102
6	3021	243.94317914958	103
6	3029	244.43654045209	104
6	3033	245.11698893796	105
6	3047	246.77413055035	106
6	3054	246.93279365059	107
6	3059	247.30568720951	108
6	3072	248.83323977693	109
6	3084	249.46169499999	110
6	3091	250.19752021008	111
6	3100	250.9580370597	112
6	3196	251.45126728785	113
6	3204	252.52834491724	114
6	3217	255.23086637485	115
6	3222	255.62579877969	116
6	3233	257.67138887257	117
6	3264	260.06632140482	118
6	3273	261.54904251744	119
6	3296	263.19589508691	120
6	3304	263.82666562978	121
6	3320	265.05575598676	122
6	3336	267.88308929644	123
6	3349	271.20035330643	124
6	3365	273.22919352075	125
6	3379	277.87812361787	126
6	3387	278.52459473645	127
6	3396	279.85414350464	128
6	3418	280.72828171603	129
6	3424	281.6212396112	130
6	3449	286.48054374364	131
6	3460	290.2707194756	132
6	3481	296.48640294969	133
6	3488	297.3383114555	134
6	3603	305.50605454194	135
6	3624	316.90314959368	136
6	3644	321.76118735867	137
6	3669	336.09506589343	138
6	3680	337.88411659715	139
6	3713	349.69503020696	140
6	3818	354.97783495212	141
6	3846	365.69116260685	142
6	3880	378.03865571034	143
6	3894	383.70274664663	144
6	3906	386.48658995857	145
6	3931	397.18879190148	146
6	3939	397.97106119797	147
6	4058	410.04810799721	148
6	4067	411.87002652316	149
6	4111	431.67111657436	150
6	4118	432.35658287877	151
6	4146	446.22741501537	152
6	4156	447.17639745671	153
7	165	9.51575733781	1
7	352	29.7785287077	2
7	369	32.51435665241	3
7	386	34.15426315836	4
7	445	39.42169859184	5
7	449	39.50387152089	6
7	461	41.02840116657	7
7	476	42.09320378666	8
7	503	44.47014652535	9
7	547	48.10473546678	10
7	672	52.33022180948	11
7	730	58.24038587272	12
7	777	62.87645659752	13
7	803	64.17075853738	14
7	906	76.04265077266	15
7	931	78.97356859585	16
7	950	80.29360771406	17
7	1058	89.87847215592	18
7	1068	92.16295622399	19
7	1080	94.23827712185	20
7	1115	96.49141815201	21
7	1148	98.97944442988	22
7	1267	101.48288933038	23
7	1301	104.57205037298	24
7	1323	106.67334830615	25
7	1327	107.09083003984	26
7	1366	111.48046530544	27
7	1388	113.60450274603	28
7	1400	115.16932450811	29
7	1411	115.97773125804	30
7	1457	119.58365385131	31
7	1502	123.47157689969	32
7	1526	125.92693566637	33
7	1534	127.08326566143	34
7	1586	130.01489989519	35
7	1621	132.82000589411	36
7	1635	134.89490270557	37
7	1643	135.4765224072	38
7	1651	136.50564234415	39
7	1661	137.83399805604	40
7	1723	144.2821935098	41
7	1740	145.88939568604	42
7	1762	148.24604985298	43
7	1774	148.94022862654	44
7	1895	151.27417480683	45
7	1908	152.50215335576	46
7	1914	153.64069288228	47
7	1939	156.16558017154	48
7	1983	158.93217927138	49
7	2015	161.97479864644	50
7	2045	164.52291172174	51
7	2049	164.745651778	52
7	2061	164.93257479139	53
7	2070	165.85648238952	54
7	2098	169.3081290366	55
7	2124	172.48331182501	56
7	2141	173.83388606125	57
7	2169	176.60377950401	58
7	2183	177.62331886094	59
7	2187	177.80300476997	60
7	2214	180.72083265232	61
7	2263	183.37687541325	62
7	2268	183.58639641542	63
7	2280	185.12230786372	64
7	2294	186.2968215946	65
7	2317	187.88666823989	66
7	2347	193.42520078239	67
7	2366	194.49070992522	68
7	2377	195.46701255946	69
7	2395	196.15064035395	70
7	2420	198.22004366776	71
7	2541	201.82513541253	72
7	2571	203.83676588296	73
7	2600	206.41384401701	74
7	2626	208.93599598662	75
7	2633	209.56044587832	76
7	2658	213.78113976905	77
7	2666	214.74320527925	78
7	2721	218.56265345231	79
7	2756	221.00983924759	80
7	2771	222.25926492306	81
7	2787	224.21866924263	82
7	2796	224.80347636964	83
7	2813	226.02414524758	84
7	2826	228.35666075991	85
7	2840	230.47765817704	86
7	2844	230.48363030416	87
7	2851	231.63405812871	88
7	2873	232.48829581254	89
7	2877	233.40222474053	90
7	2884	233.87193814728	91
7	2896	235.2392915782	92
7	2907	235.73702070507	93
7	2921	237.51319548561	94
7	2944	239.361933876	95
7	2948	239.42998656749	96
7	2967	240.07023405626	97
7	2975	240.71747934439	98
7	2982	241.21581722264	99
7	2995	241.59747149788	100
7	3001	242.05392206264	101
7	3011	243.23593007344	102
7	3021	243.94317914958	103
7	3029	244.43654045209	104
7	3033	245.11698893796	105
7	3047	246.77413055035	106
7	3054	246.93279365059	107
7	3059	247.30568720951	108
7	3072	248.83323977693	109
7	3084	249.46169499999	110
7	3091	250.19752021008	111
7	3100	250.9580370597	112
7	3196	251.45126728785	113
7	3204	252.52834491724	114
7	3217	255.23086637485	115
7	3222	255.62579877969	116
7	3233	257.67138887257	117
7	3264	260.06632140482	118
7	3273	261.54904251744	119
7	3296	263.19589508691	120
7	3304	263.82666562978	121
7	3320	265.05575598676	122
7	3336	267.88308929644	123
7	3349	271.20035330643	124
7	3365	273.22919352075	125
7	3379	277.87812361787	126
7	3387	278.52459473645	127
7	3396	279.85414350464	128
7	3418	280.72828171603	129
7	3424	281.6212396112	130
7	3449	286.48054374364	131
7	3460	290.2707194756	132
7	3481	296.48640294969	133
7	3488	297.3383114555	134
7	3603	305.50605454194	135
7	3624	316.90314959368	136
7	3644	321.76118735867	137
7	3669	336.09506589343	138
7	3680	337.88411659715	139
7	3713	349.69503020696	140
7	3818	354.97783495212	141
7	3846	365.69116260685	142
7	3880	378.03865571034	143
7	3894	383.70274664663	144
7	3906	386.48658995857	145
7	3931	397.18879190148	146
7	3939	397.97106119797	147
7	4058	410.04810799721	148
7	4067	411.87002652316	149
7	4111	431.67111657436	150
7	4118	432.35658287877	151
7	4146	446.22741501537	152
7	4156	447.17639745671	153
8	165	9.51575733781	1
8	352	29.7785287077	2
8	369	32.51435665241	3
8	386	34.15426315836	4
8	445	39.42169859184	5
8	449	39.50387152089	6
8	461	41.02840116657	7
8	476	42.09320378666	8
8	503	44.47014652535	9
8	547	48.10473546678	10
8	672	52.33022180948	11
8	730	58.24038587272	12
8	777	62.87645659752	13
8	803	64.17075853738	14
8	906	76.04265077266	15
8	931	78.97356859585	16
8	950	80.29360771406	17
8	1058	89.87847215592	18
8	1068	92.16295622399	19
8	1080	94.23827712185	20
8	1115	96.49141815201	21
8	1148	98.97944442988	22
8	1267	101.48288933038	23
8	1301	104.57205037298	24
8	1323	106.67334830615	25
8	1327	107.09083003984	26
8	1366	111.48046530544	27
8	1388	113.60450274603	28
8	1400	115.16932450811	29
8	1411	115.97773125804	30
8	1457	119.58365385131	31
8	1502	123.47157689969	32
8	1526	125.92693566637	33
8	1534	127.08326566143	34
8	1586	130.01489989519	35
8	1621	132.82000589411	36
8	1635	134.89490270557	37
8	1643	135.4765224072	38
8	1651	136.50564234415	39
8	1661	137.83399805604	40
8	1723	144.2821935098	41
8	1740	145.88939568604	42
8	1762	148.24604985298	43
8	1774	148.94022862654	44
8	1895	151.27417480683	45
8	1908	152.50215335576	46
8	1914	153.64069288228	47
8	1939	156.16558017154	48
8	1983	158.93217927138	49
8	2015	161.97479864644	50
8	2045	164.52291172174	51
8	2049	164.745651778	52
8	2061	164.93257479139	53
8	2070	165.85648238952	54
8	2098	169.3081290366	55
8	2124	172.48331182501	56
8	2141	173.83388606125	57
8	2169	176.60377950401	58
8	2183	177.62331886094	59
8	2187	177.80300476997	60
8	2214	180.72083265232	61
8	2263	183.37687541325	62
8	2268	183.58639641542	63
8	2280	185.12230786372	64
8	2294	186.2968215946	65
8	2317	187.88666823989	66
8	2347	193.42520078239	67
8	2366	194.49070992522	68
8	2377	195.46701255946	69
8	2395	196.15064035395	70
8	2420	198.22004366776	71
8	2541	201.82513541253	72
8	2571	203.83676588296	73
8	2600	206.41384401701	74
8	2626	208.93599598662	75
8	2633	209.56044587832	76
8	2658	213.78113976905	77
8	2666	214.74320527925	78
8	2721	218.56265345231	79
8	2756	221.00983924759	80
8	2771	222.25926492306	81
8	2787	224.21866924263	82
8	2796	224.80347636964	83
8	2813	226.02414524758	84
8	2826	228.35666075991	85
8	2840	230.47765817704	86
8	2844	230.48363030416	87
8	2851	231.63405812871	88
8	2873	232.48829581254	89
8	2877	233.40222474053	90
8	2884	233.87193814728	91
8	2896	235.2392915782	92
8	2907	235.73702070507	93
8	2921	237.51319548561	94
8	2944	239.361933876	95
8	2948	239.42998656749	96
8	2967	240.07023405626	97
8	2975	240.71747934439	98
8	2982	241.21581722264	99
8	2995	241.59747149788	100
8	3001	242.05392206264	101
8	3011	243.23593007344	102
8	3021	243.94317914958	103
8	3029	244.43654045209	104
8	3033	245.11698893796	105
8	3047	246.77413055035	106
8	3054	246.93279365059	107
8	3059	247.30568720951	108
8	3072	248.83323977693	109
8	3084	249.46169499999	110
8	3091	250.19752021008	111
8	3100	250.9580370597	112
8	3196	251.45126728785	113
8	3204	252.52834491724	114
8	3217	255.23086637485	115
8	3222	255.62579877969	116
8	3233	257.67138887257	117
8	3264	260.06632140482	118
8	3273	261.54904251744	119
8	3296	263.19589508691	120
8	3304	263.82666562978	121
8	3320	265.05575598676	122
8	3336	267.88308929644	123
8	3349	271.20035330643	124
8	3365	273.22919352075	125
8	3379	277.87812361787	126
8	3387	278.52459473645	127
8	3396	279.85414350464	128
8	3418	280.72828171603	129
8	3424	281.6212396112	130
8	3449	286.48054374364	131
8	3460	290.2707194756	132
8	3481	296.48640294969	133
8	3488	297.3383114555	134
8	3603	305.50605454194	135
8	3624	316.90314959368	136
8	3644	321.76118735867	137
8	3669	336.09506589343	138
8	3680	337.88411659715	139
8	3713	349.69503020696	140
8	3818	354.97783495212	141
8	3846	365.69116260685	142
8	3880	378.03865571034	143
8	3894	383.70274664663	144
8	3906	386.48658995857	145
8	3931	397.18879190148	146
8	3939	397.97106119797	147
8	4058	410.04810799721	148
8	4067	411.87002652316	149
8	4111	431.67111657436	150
8	4118	432.35658287877	151
8	4146	446.22741501537	152
8	4156	447.17639745671	153
9	368	32.51435665241	180
9	1525	125.92693566637	180
9	2186	177.80300476997	180
9	2850	231.63405812871	180
9	3203	252.52834491724	180
10	368	32.51435665241	31.51435665241
10	1525	125.92693566637	124.92693566637
10	2186	177.80300476997	176.80300476997
10	2850	231.63405812871	230.63405812871
10	3203	252.52834491724	251.52834491724
11	368	32.51435665241	31.51435665241
12	385	34.15426315836	180
12	1057	89.87847215592	180
12	2097	169.3081290366	180
12	2981	241.21581722264	180
13	385	34.15426315836	33.15426315836
13	1057	89.87847215592	88.87847215592
13	2097	169.3081290366	168.3081290366
13	2981	241.21581722264	240.21581722264
14	385	34.15426315836	33.15426315836
15	444	39.42169859184	180
15	776	62.87645659752	180
15	905	76.04265077266	180
15	1365	111.48046530544	180
15	1722	144.2821935098	180
15	2182	177.62331886094	180
15	2376	195.46701255946	180
15	2599	206.41384401701	180
15	2843	230.48363030416	180
15	3020	243.94317914958	180
15	3216	255.23086637485	180
16	444	39.42169859184	38.42169859184
16	776	62.87645659752	61.87645659752
16	905	76.04265077266	75.04265077266
16	1365	111.48046530544	110.48046530544
16	1722	144.2821935098	143.2821935098
16	2182	177.62331886094	176.62331886094
16	2376	195.46701255946	194.46701255946
16	2599	206.41384401701	205.41384401701
16	2843	230.48363030416	229.48363030416
16	3020	243.94317914958	242.94317914958
16	3216	255.23086637485	254.23086637485
17	444	39.42169859184	38.42169859184
18	448	39.50387152089	180
18	1300	104.57205037298	180
18	1660	137.83399805604	180
18	1938	156.16558017154	180
18	2346	193.42520078239	180
18	2895	235.2392915782	180
19	448	39.50387152089	38.50387152089
19	1300	104.57205037298	103.57205037298
19	1660	137.83399805604	136.83399805604
19	1938	156.16558017154	155.16558017154
19	2346	193.42520078239	192.42520078239
19	2895	235.2392915782	234.2392915782
20	448	39.50387152089	38.50387152089
21	460	41.02840116657	180
21	930	78.97356859585	180
21	1266	101.48288933038	180
21	1456	119.58365385131	180
21	1585	130.01489989519	180
21	1907	152.50215335576	180
21	2044	164.52291172174	180
21	2293	186.2968215946	180
21	2632	209.56044587832	180
21	2770	222.25926492306	180
21	3032	245.11698893796	180
21	3272	261.54904251744	180
21	3395	279.85414350464	180
22	460	41.02840116657	40.02840116657
22	930	78.97356859585	77.97356859585
22	1266	101.48288933038	100.48288933038
22	1456	119.58365385131	118.58365385131
22	1585	130.01489989519	129.01489989519
22	1907	152.50215335576	151.50215335576
22	2044	164.52291172174	163.52291172174
22	2293	186.2968215946	185.2968215946
22	2632	209.56044587832	208.56044587832
22	2770	222.25926492306	221.25926492306
22	3032	245.11698893796	244.11698893796
22	3272	261.54904251744	260.54904251744
22	3395	279.85414350464	278.85414350464
23	460	41.02840116657	40.02840116657
24	475	42.09320378666	180
24	802	64.17075853738	180
24	1114	96.49141815201	180
24	1410	115.97773125804	180
24	1982	158.93217927138	180
24	2262	183.37687541325	180
24	2540	201.82513541253	180
24	2825	228.35666075991	180
24	3046	246.77413055035	180
24	3232	257.67138887257	180
25	475	42.09320378666	41.09320378666
25	802	64.17075853738	63.17075853738
25	1114	96.49141815201	95.49141815201
25	1410	115.97773125804	114.97773125804
25	1982	158.93217927138	157.93217927138
25	2262	183.37687541325	182.37687541325
25	2540	201.82513541253	200.82513541253
25	2825	228.35666075991	227.35666075991
25	3046	246.77413055035	245.77413055035
25	3232	257.67138887257	256.67138887257
26	475	42.09320378666	41.09320378666
27	502	44.47014652535	180
27	1399	115.16932450811	180
27	1620	132.82000589411	180
27	1894	151.27417480683	180
27	2048	164.745651778	180
27	2279	185.12230786372	180
27	2570	203.83676588296	180
27	2795	224.80347636964	180
27	2974	240.71747934439	180
27	3295	263.19589508691	180
27	3386	278.52459473645	180
28	502	44.47014652535	43.47014652535
28	1399	115.16932450811	114.16932450811
28	1620	132.82000589411	131.82000589411
28	1894	151.27417480683	150.27417480683
28	2048	164.745651778	163.745651778
28	2279	185.12230786372	184.12230786372
28	2570	203.83676588296	202.83676588296
28	2795	224.80347636964	223.80347636964
28	2974	240.71747934439	239.71747934439
28	3295	263.19589508691	262.19589508691
28	3386	278.52459473645	277.52459473645
29	502	44.47014652535	43.47014652535
30	671	52.33022180948	180
30	2920	237.51319548561	180
31	671	52.33022180948	51.33022180948
31	2920	237.51319548561	236.51319548561
32	671	52.33022180948	51.33022180948
33	729	58.24038587272	180
33	949	80.29360771406	180
33	1079	94.23827712185	180
33	1322	106.67334830615	180
33	1501	123.47157689969	180
33	1642	135.4765224072	180
33	1739	145.88939568604	180
33	2812	226.02414524758	180
33	2966	240.07023405626	180
34	729	58.24038587272	57.24038587272
34	949	80.29360771406	79.29360771406
34	1079	94.23827712185	93.23827712185
34	1322	106.67334830615	105.67334830615
34	1501	123.47157689969	122.47157689969
34	1642	135.4765224072	134.4765224072
34	1739	145.88939568604	144.88939568604
34	2812	226.02414524758	225.02414524758
34	2966	240.07023405626	239.07023405626
35	729	58.24038587272	57.24038587272
36	1067	92.16295622399	180
36	2994	241.59747149788	180
36	3319	265.05575598676	180
37	1067	92.16295622399	91.16295622399
37	2994	241.59747149788	240.59747149788
37	3319	265.05575598676	264.05575598676
38	1067	92.16295622399	91.16295622399
39	1147	98.97944442988	180
39	2069	165.85648238952	180
39	3303	263.82666562978	180
39	3417	280.72828171603	180
39	3602	305.50605454194	180
39	3643	321.76118735867	180
39	3679	337.88411659715	180
39	3712	349.69503020696	180
39	3845	365.69116260685	180
39	3893	383.70274664663	180
40	1147	98.97944442988	97.97944442988
40	2069	165.85648238952	164.85648238952
40	3303	263.82666562978	262.82666562978
40	3417	280.72828171603	279.72828171603
40	3602	305.50605454194	304.50605454194
40	3643	321.76118735867	320.76118735867
40	3679	337.88411659715	336.88411659715
40	3712	349.69503020696	348.69503020696
40	3845	365.69116260685	364.69116260685
40	3893	383.70274664663	382.70274664663
41	1147	98.97944442988	97.97944442988
42	1326	107.09083003984	180
42	2014	161.97479864644	180
42	2755	221.00983924759	180
42	2872	232.48829581254	180
42	3221	255.62579877969	180
43	1326	107.09083003984	106.09083003984
43	2014	161.97479864644	160.97479864644
43	2755	221.00983924759	220.00983924759
43	2872	232.48829581254	231.48829581254
43	3221	255.62579877969	254.62579877969
44	1326	107.09083003984	106.09083003984
45	1533	127.08326566143	180
45	1761	148.24604985298	180
45	2168	176.60377950401	180
45	2316	187.88666823989	180
45	2786	224.21866924263	180
45	2906	235.73702070507	180
45	3099	250.9580370597	180
45	3348	271.20035330643	180
46	1533	127.08326566143	126.08326566143
46	1761	148.24604985298	147.24604985298
46	2168	176.60377950401	175.60377950401
46	2316	187.88666823989	186.88666823989
46	2786	224.21866924263	223.21866924263
46	2906	235.73702070507	234.73702070507
46	3099	250.9580370597	249.9580370597
46	3348	271.20035330643	270.20035330643
47	1533	127.08326566143	126.08326566143
48	1650	136.50564234415	180
48	2213	180.72083265232	180
48	2665	214.74320527925	180
48	3090	250.19752021008	180
49	1650	136.50564234415	135.50564234415
49	2213	180.72083265232	179.72083265232
49	2665	214.74320527925	213.74320527925
49	3090	250.19752021008	249.19752021008
50	1650	136.50564234415	135.50564234415
51	1773	148.94022862654	180
51	2267	183.58639641542	180
51	2943	239.361933876	180
51	3263	260.06632140482	180
51	3879	378.03865571034	180
51	3938	397.97106119797	180
51	4057	410.04810799721	180
51	4110	431.67111657436	180
51	4155	447.17639745671	180
52	1773	148.94022862654	147.94022862654
52	2267	183.58639641542	182.58639641542
52	2943	239.361933876	238.361933876
52	3263	260.06632140482	259.06632140482
52	3879	378.03865571034	377.03865571034
52	3938	397.97106119797	396.97106119797
52	4057	410.04810799721	409.04810799721
52	4110	431.67111657436	430.67111657436
52	4155	447.17639745671	446.17639745671
53	1773	148.94022862654	147.94022862654
54	1913	153.64069288228	180
54	2123	172.48331182501	180
55	1913	153.64069288228	152.64069288228
55	2123	172.48331182501	171.48331182501
56	1913	153.64069288228	152.64069288228
57	2060	164.93257479139	180
57	2839	230.47765817704	180
57	3195	251.45126728785	180
57	3364	273.22919352075	180
57	3459	290.2707194756	180
58	2060	164.93257479139	163.93257479139
58	2839	230.47765817704	229.47765817704
58	3195	251.45126728785	250.45126728785
58	3364	273.22919352075	272.22919352075
58	3459	290.2707194756	289.2707194756
59	2060	164.93257479139	163.93257479139
60	2140	173.83388606125	180
60	2365	194.49070992522	180
60	2720	218.56265345231	180
60	3071	248.83323977693	180
60	3335	267.88308929644	180
61	2140	173.83388606125	172.83388606125
61	2365	194.49070992522	193.49070992522
61	2720	218.56265345231	217.56265345231
61	3071	248.83323977693	247.83323977693
61	3335	267.88308929644	266.88308929644
62	2140	173.83388606125	172.83388606125
63	2394	196.15064035395	180
63	2657	213.78113976905	180
63	3083	249.46169499999	180
63	3905	386.48658995857	180
63	3930	397.18879190148	180
63	4066	411.87002652316	180
63	4117	432.35658287877	180
63	4145	446.22741501537	180
64	2394	196.15064035395	195.15064035395
64	2657	213.78113976905	212.78113976905
64	3083	249.46169499999	248.46169499999
64	3905	386.48658995857	385.48658995857
64	3930	397.18879190148	396.18879190148
64	4066	411.87002652316	410.87002652316
64	4117	432.35658287877	431.35658287877
64	4145	446.22741501537	445.22741501537
65	2394	196.15064035395	195.15064035395
66	2419	198.22004366776	180
66	2625	208.93599598662	180
66	2883	233.87193814728	180
67	2419	198.22004366776	197.22004366776
67	2625	208.93599598662	207.93599598662
67	2883	233.87193814728	232.87193814728
68	2419	198.22004366776	197.22004366776
69	2876	233.40222474053	180
69	3053	246.93279365059	180
69	3448	286.48054374364	180
69	3487	297.3383114555	180
69	3623	316.90314959368	180
69	3668	336.09506589343	180
69	3817	354.97783495212	180
70	2876	233.40222474053	232.40222474053
70	3053	246.93279365059	245.93279365059
70	3448	286.48054374364	285.48054374364
70	3487	297.3383114555	296.3383114555
70	3623	316.90314959368	315.90314959368
70	3668	336.09506589343	335.09506589343
70	3817	354.97783495212	353.97783495212
71	2876	233.40222474053	232.40222474053
72	2947	239.42998656749	180
72	3423	281.6212396112	180
73	2947	239.42998656749	238.42998656749
73	3423	281.6212396112	280.6212396112
74	2947	239.42998656749	238.42998656749
75	3000	242.05392206264	180
76	3000	242.05392206264	241.05392206264
77	3000	242.05392206264	241.05392206264
78	3010	243.23593007344	180
78	3378	277.87812361787	180
78	3480	296.48640294969	180
79	3010	243.23593007344	242.23593007344
79	3378	277.87812361787	276.87812361787
79	3480	296.48640294969	295.48640294969
80	3010	243.23593007344	242.23593007344
81	3028	244.43654045209	180
82	3028	244.43654045209	243.43654045209
83	3028	244.43654045209	243.43654045209
84	3058	247.30568720951	180
85	3058	247.30568720951	246.30568720951
86	3058	247.30568720951	246.30568720951

