version 3
run General-7-20260527-01:33:14-720927
attr configname General
attr datetime 20260527-01:33:14
attr datetimef 20260527-013314
attr experiment General
attr inifile Test_MLModel_1.ini
attr iterationvars $0=51904
attr iterationvarsd 51904
attr iterationvarsf 51904-
attr measurement $0=51904
attr network Florasat.Test_Individual.Florasat_Individual_Sats
attr processid 720927
attr repetition 7
attr replication #7
attr resultdir results
attr runnumber 7
attr seedset 7
config *.satellite[0].NoradModule.raan 185
config *.stats_altitude 670
config *.stats_raan 185
config image-path ../../images:../../../../samples/inet4.5_2/images
config network Florasat.Test_Individual.Florasat_Individual_Sats
config rng-class cMersenneTwister
config *.**.result-recording-modes -
config **.result-recording-modes -
config **.statistic-recording true
config **.scalar-recording true
config **.vector-recording true
config **.vector-record-eventnumbers true
config repeat 10
config seed-0-mt 51904
config sim-time-limit 749s
config simtime-resolution -11
config **.stats_altitude 670
config **.stats_raan 185
config *.radioMedium.backgroundNoise.power -110dBm
config *.radioMedium.mediumLimitCache.centerFrequency 868MHz
config *.radioMedium.mediumLimitCache.maxTransmissionDuration 4s
config *.radioMedium.mediumLimitCache.minInterferenceTime 0s
config **.numSatellites 1
config *.satellite[*].mobilityType "\"Sat_Mob_SatelliteMobility_Standalone\""
config *.satellite[*].noradModuleType "\"Sat_Mob_NoradA\""
config **.satellite[*].**.initFromDisplayString false
config *.satellite[*].mobility.faceForward true
config *.satellite[*].mobility.updateInterval 20s
config *.satellite[*].NoradModule.satName "\"FLoRaSat\""
config *.satellite[*].NoradModule.satIndex -1
config *.satellite[*].NoradModule.baseYear 20
config *.satellite[*].NoradModule.baseDay 1.5
config *.satellite[*].NoradModule.planes 1
config *.satellite[*].NoradModule.satPerPlane 1
config *.satellite[*].NoradModule.eccentricity 0.000001
config *.satellite[*].NoradModule.inclination 98
config *.satellite[*].NoradModule.altitude 670
config *.satellite[0].NoradModule.raan 185
config *.satellite[0].NoradModule.meanAnomaly 195
config *.satellite[*].phyDSL.radio.receiver.enableCollisionOverlap true
config *.satellite[*].phyDSL.radio.receiver.minCollisionOverlap 0s
config *.satellite[*].phyDSL.radio.antenna.typename ConstantGainAntenna
config *.satellite[*].phyDSL.radio.antenna.mobilityModule "\"^.^.^.mobility\""
config *.satellite[*].phyISL.radio.antenna.mobilityModule "\"^.^.^.mobility\""
config *.satellite[*].phyGSL.radio.antenna.mobilityModule "\"^.^.^.mobility\""
config *.satellite[*].phyDSL.radio.antenna.gain 12dB
config *.satellite[*].net.routingType "\"Null_Routing\""
config *.terminal[*].net.routingType "\"Ter_Null_Routing\""
config *.**.numGroundLinks 40
config *.satellite[*].**.interfaceTableModule "\"\""
config **.radioMedium.typename LoRaMedium
config **.radioMedium.analogModel.typename LoRaAnalogModel
config **.intraPlaneIslDisabled false
config **.interPlaneIslDisabled false
config **.numTerminals 30
config *.terminal[*].phy.radio.antenna.mobilityModule "\"^.^.^.mob\""
config *.terminal[*].dlk.mac.interfaceTableModule "\"\""
config *.terminal[*].dlk.energySourceModule "\"\""
config *.terminal[*].dlk.mac.LoRaTP "intuniform(12, 14)"
config *.terminal[*].dlk.mac.LoRaSF "intuniform(10, 12)"
config *.terminal[*].dlk.mac.useMLBox true
config *.terminal[*].dlk.mac.mlBox.modelPath "\"/home/ylnner/Documents/omnet++/omnetpp-6.3.0/projects/florasat_v4_ult_routing/simulations/Test_Individual/mlmodels/transformer_scripted.pt\""
config **.numberOfPacketsToSend 0
config **.timeToFirstPacket 1s
config **.timeToNextPacket 50s
config *.terminal[0].mob.radius 0.0
config *.terminal[0].mob.centerLatitude 54.978
config *.terminal[0].mob.centerLongitude -1.617
config *.terminal[1].mob.radius 0.0
config *.terminal[1].mob.centerLatitude 52.630
config *.terminal[1].mob.centerLongitude -1.139
config *.terminal[2].mob.radius 0.0
config *.terminal[2].mob.centerLatitude 52.612
config *.terminal[2].mob.centerLongitude -6.295
config *.terminal[3].mob.radius 0.0
config *.terminal[3].mob.centerLatitude 47.243
config *.terminal[3].mob.centerLongitude 6.024
config *.terminal[4].mob.radius 0.0
config *.terminal[4].mob.centerLatitude 43.610
config *.terminal[4].mob.centerLongitude 3.876
config *.terminal[5].mob.radius 0.0
config *.terminal[5].mob.centerLatitude 49.443
config *.terminal[5].mob.centerLongitude 1.099
config *.terminal[6].mob.radius 0.0
config *.terminal[6].mob.centerLatitude 37.992
config *.terminal[6].mob.centerLongitude -1.130
config *.terminal[7].mob.radius 0.0
config *.terminal[7].mob.centerLatitude 40.965
config *.terminal[7].mob.centerLongitude -5.664
config *.terminal[8].mob.radius 0.0
config *.terminal[8].mob.centerLatitude 40.657
config *.terminal[8].mob.centerLongitude -7.914
config *.terminal[9].mob.radius 0.0
config *.terminal[9].mob.centerLatitude 51.340
config *.terminal[9].mob.centerLongitude 12.373
config *.terminal[10].mob.radius 0.0
config *.terminal[10].mob.centerLatitude 51.455
config *.terminal[10].mob.centerLongitude 7.011
config *.terminal[11].mob.radius 0.0
config *.terminal[11].mob.centerLatitude 49.452
config *.terminal[11].mob.centerLongitude 11.076
config *.terminal[12].mob.radius 0.0
config *.terminal[12].mob.centerLatitude 43.769
config *.terminal[12].mob.centerLongitude 11.255
config *.terminal[13].mob.radius 0.0
config *.terminal[13].mob.centerLatitude 41.117
config *.terminal[13].mob.centerLongitude 16.871
config *.terminal[14].mob.radius 0.0
config *.terminal[14].mob.centerLatitude 52.132
config *.terminal[14].mob.centerLongitude 5.291
config *.terminal[15].mob.radius 0.0
config *.terminal[15].mob.centerLatitude 50.411
config *.terminal[15].mob.centerLongitude 4.444
config *.terminal[16].mob.radius 0.0
config *.terminal[16].mob.centerLatitude 47.559
config *.terminal[16].mob.centerLongitude 7.588
config *.terminal[17].mob.radius 0.0
config *.terminal[17].mob.centerLatitude 55.403
config *.terminal[17].mob.centerLongitude 10.402
config *.terminal[18].mob.radius 0.0
config *.terminal[18].mob.centerLatitude 59.858
config *.terminal[18].mob.centerLongitude 17.638
config *.terminal[19].mob.radius 0.0
config *.terminal[19].mob.centerLatitude 60.451
config *.terminal[19].mob.centerLongitude 22.266
config *.terminal[20].mob.radius 0.0
config *.terminal[20].mob.centerLatitude 56.325
config *.terminal[20].mob.centerLongitude 22.349
config *.terminal[21].mob.radius 0.0
config *.terminal[21].mob.centerLatitude 49.883
config *.terminal[21].mob.centerLongitude 18.568
config *.terminal[22].mob.radius 0.0
config *.terminal[22].mob.centerLatitude 47.531
config *.terminal[22].mob.centerLongitude 21.627
config *.terminal[23].mob.radius 0.0
config *.terminal[23].mob.centerLatitude 44.179
config *.terminal[23].mob.centerLongitude 28.649
config *.terminal[24].mob.radius 0.0
config *.terminal[24].mob.centerLatitude 45.327
config *.terminal[24].mob.centerLongitude 14.442
config *.terminal[25].mob.radius 0.0
config *.terminal[25].mob.centerLatitude 40.694
config *.terminal[25].mob.centerLongitude 30.400
config *.terminal[26].mob.radius 0.0
config *.terminal[26].mob.centerLatitude 37.066
config *.terminal[26].mob.centerLongitude 37.383
config *.terminal[27].mob.radius 0.0
config *.terminal[27].mob.centerLatitude 64.836
config *.terminal[27].mob.centerLongitude -23.708
config *.terminal[28].mob.radius 0.0
config *.terminal[28].mob.centerLatitude 28.099
config *.terminal[28].mob.centerLongitude -17.113
config *.terminal[29].mob.radius 0.0
config *.terminal[29].mob.centerLatitude 34.921
config *.terminal[29].mob.centerLongitude 33.623
config **.numStations 3
config **.numStations 3
config *.station[0].mobility.latitude 55.752
config *.station[0].mobility.longitude 37.616
config *.station[0].cityName "\"Moscow\""
config *.station[0].groundStationId 7
config *.station[0].routerAddr "\"10.0.0.29\""
config *.station[0].serving "\"10.0.0.29\""
config *.station[1].mobility.latitude 28.652
config *.station[1].mobility.longitude 77.231
config *.station[1].cityName "\"Delhi\""
config *.station[1].groundStationId 11
config *.station[1].routerAddr "\"10.0.0.45\""
config *.station[1].serving "\"10.0.0.45\""
config *.station[2].mobility.latitude 25.35
config *.station[2].mobility.longitude 51.24
config *.station[2].cityName "\"Katar\""
config *.station[2].groundStationId 19
config *.station[2].routerAddr "\"10.0.0.77\""
config *.station[2].serving "\"10.0.0.77\""
config *.visualizer.canvasVisualizer.mediumVisualizer.typename ""
config *.visualizer.*.radioVisualizer.displayAntennaLobes true
config *.visualizer.*.dataLinkVisualizer.displayLinks true
config *.visualizer.*.mobilityVisualizer.displayMovementTrails true
config *.visualizer.*.mobilityVisualizer.movementTrailLineWidth 1
config *.visualizer.*.mobilityVisualizer.trailLength 3000
config **.ttxStart_max 30s
config **.ttxIdle_min 10s
config **.ttxIdle_max 25s
config **.Ntw 2
config **.Ntx 45
config **.ttwDuration 550s

vector 0 Florasat_Individual_Sats.satellite[0].dlkDSL.mac "Satellite Position when Repetition Received" ETV
vector 1 Florasat_Individual_Sats.satellite[0].dlkDSL.mac "Repetition Position for Node 373 at Satellite" ETV
vector 2 Florasat_Individual_Sats.satellite[0].dlkDSL.mac "All Nodes Repetition Generation Delay at Satellite" ETV
vector 3 Florasat_Individual_Sats.satellite[0].dlkDSL.mac "Repetition Generation Delay for Node 373 at Satellite" ETV
vector 4 Florasat_Individual_Sats.satellite[0].dlkDSL.mac "All Nodes Message Generation Delay at Satellite" ETV
vector 5 Florasat_Individual_Sats.satellite[0].dlkDSL.mac "Message Generation Delay for Node 373 at Satellite" ETV
vector 6 Florasat_Individual_Sats.satellite[0].net.packetHandler "packets received" ETV
vector 7 Florasat_Individual_Sats.satellite[0].net.packetHandler "dropped unroutable" ETV
vector 8 Florasat_Individual_Sats.satellite[0].net.packetHandler "packets dropped" ETV
vector 9 Florasat_Individual_Sats.satellite[0].dlkDSL.mac "Repetition Position for Node 178 at Satellite" ETV
vector 10 Florasat_Individual_Sats.satellite[0].dlkDSL.mac "Repetition Generation Delay for Node 178 at Satellite" ETV
vector 11 Florasat_Individual_Sats.satellite[0].dlkDSL.mac "Message Generation Delay for Node 178 at Satellite" ETV
vector 12 Florasat_Individual_Sats.satellite[0].dlkDSL.mac "Repetition Position for Node 463 at Satellite" ETV
vector 13 Florasat_Individual_Sats.satellite[0].dlkDSL.mac "Repetition Generation Delay for Node 463 at Satellite" ETV
vector 14 Florasat_Individual_Sats.satellite[0].dlkDSL.mac "Message Generation Delay for Node 463 at Satellite" ETV
vector 15 Florasat_Individual_Sats.satellite[0].dlkDSL.mac "Repetition Position for Node 418 at Satellite" ETV
vector 16 Florasat_Individual_Sats.satellite[0].dlkDSL.mac "Repetition Generation Delay for Node 418 at Satellite" ETV
vector 17 Florasat_Individual_Sats.satellite[0].dlkDSL.mac "Message Generation Delay for Node 418 at Satellite" ETV
vector 18 Florasat_Individual_Sats.satellite[0].dlkDSL.mac "Repetition Position for Node 73 at Satellite" ETV
vector 19 Florasat_Individual_Sats.satellite[0].dlkDSL.mac "Repetition Generation Delay for Node 73 at Satellite" ETV
vector 20 Florasat_Individual_Sats.satellite[0].dlkDSL.mac "Message Generation Delay for Node 73 at Satellite" ETV
vector 21 Florasat_Individual_Sats.satellite[0].dlkDSL.mac "Repetition Position for Node 58 at Satellite" ETV
vector 22 Florasat_Individual_Sats.satellite[0].dlkDSL.mac "Repetition Generation Delay for Node 58 at Satellite" ETV
vector 23 Florasat_Individual_Sats.satellite[0].dlkDSL.mac "Message Generation Delay for Node 58 at Satellite" ETV
vector 24 Florasat_Individual_Sats.satellite[0].dlkDSL.mac "Repetition Position for Node 388 at Satellite" ETV
vector 25 Florasat_Individual_Sats.satellite[0].dlkDSL.mac "Repetition Generation Delay for Node 388 at Satellite" ETV
vector 26 Florasat_Individual_Sats.satellite[0].dlkDSL.mac "Message Generation Delay for Node 388 at Satellite" ETV
vector 27 Florasat_Individual_Sats.satellite[0].dlkDSL.mac "Repetition Position for Node 268 at Satellite" ETV
vector 28 Florasat_Individual_Sats.satellite[0].dlkDSL.mac "Repetition Generation Delay for Node 268 at Satellite" ETV
vector 29 Florasat_Individual_Sats.satellite[0].dlkDSL.mac "Message Generation Delay for Node 268 at Satellite" ETV
vector 30 Florasat_Individual_Sats.satellite[0].dlkDSL.mac "Repetition Position for Node 328 at Satellite" ETV
vector 31 Florasat_Individual_Sats.satellite[0].dlkDSL.mac "Repetition Generation Delay for Node 328 at Satellite" ETV
vector 32 Florasat_Individual_Sats.satellite[0].dlkDSL.mac "Message Generation Delay for Node 328 at Satellite" ETV
vector 33 Florasat_Individual_Sats.satellite[0].dlkDSL.mac "Repetition Position for Node 238 at Satellite" ETV
vector 34 Florasat_Individual_Sats.satellite[0].dlkDSL.mac "Repetition Generation Delay for Node 238 at Satellite" ETV
vector 35 Florasat_Individual_Sats.satellite[0].dlkDSL.mac "Message Generation Delay for Node 238 at Satellite" ETV
vector 36 Florasat_Individual_Sats.satellite[0].dlkDSL.mac "Repetition Position for Node 403 at Satellite" ETV
vector 37 Florasat_Individual_Sats.satellite[0].dlkDSL.mac "Repetition Generation Delay for Node 403 at Satellite" ETV
vector 38 Florasat_Individual_Sats.satellite[0].dlkDSL.mac "Message Generation Delay for Node 403 at Satellite" ETV
vector 39 Florasat_Individual_Sats.satellite[0].dlkDSL.mac "Repetition Position for Node 88 at Satellite" ETV
vector 40 Florasat_Individual_Sats.satellite[0].dlkDSL.mac "Repetition Generation Delay for Node 88 at Satellite" ETV
vector 41 Florasat_Individual_Sats.satellite[0].dlkDSL.mac "Message Generation Delay for Node 88 at Satellite" ETV
vector 42 Florasat_Individual_Sats.satellite[0].dlkDSL.mac "Repetition Position for Node 163 at Satellite" ETV
vector 43 Florasat_Individual_Sats.satellite[0].dlkDSL.mac "Repetition Generation Delay for Node 163 at Satellite" ETV
vector 44 Florasat_Individual_Sats.satellite[0].dlkDSL.mac "Message Generation Delay for Node 163 at Satellite" ETV
vector 45 Florasat_Individual_Sats.satellite[0].dlkDSL.mac "Repetition Position for Node 103 at Satellite" ETV
vector 46 Florasat_Individual_Sats.satellite[0].dlkDSL.mac "Repetition Generation Delay for Node 103 at Satellite" ETV
vector 47 Florasat_Individual_Sats.satellite[0].dlkDSL.mac "Message Generation Delay for Node 103 at Satellite" ETV
vector 48 Florasat_Individual_Sats.satellite[0].dlkDSL.mac "Repetition Position for Node 313 at Satellite" ETV
vector 49 Florasat_Individual_Sats.satellite[0].dlkDSL.mac "Repetition Generation Delay for Node 313 at Satellite" ETV
vector 50 Florasat_Individual_Sats.satellite[0].dlkDSL.mac "Message Generation Delay for Node 313 at Satellite" ETV
vector 51 Florasat_Individual_Sats.satellite[0].dlkDSL.mac "Repetition Position for Node 133 at Satellite" ETV
vector 52 Florasat_Individual_Sats.satellite[0].dlkDSL.mac "Repetition Generation Delay for Node 133 at Satellite" ETV
vector 53 Florasat_Individual_Sats.satellite[0].dlkDSL.mac "Message Generation Delay for Node 133 at Satellite" ETV
vector 54 Florasat_Individual_Sats.satellite[0].dlkDSL.mac "Repetition Position for Node 343 at Satellite" ETV
vector 55 Florasat_Individual_Sats.satellite[0].dlkDSL.mac "Repetition Generation Delay for Node 343 at Satellite" ETV
vector 56 Florasat_Individual_Sats.satellite[0].dlkDSL.mac "Message Generation Delay for Node 343 at Satellite" ETV
vector 57 Florasat_Individual_Sats.satellite[0].dlkDSL.mac "Repetition Position for Node 208 at Satellite" ETV
vector 58 Florasat_Individual_Sats.satellite[0].dlkDSL.mac "Repetition Generation Delay for Node 208 at Satellite" ETV
vector 59 Florasat_Individual_Sats.satellite[0].dlkDSL.mac "Message Generation Delay for Node 208 at Satellite" ETV
vector 60 Florasat_Individual_Sats.satellite[0].dlkDSL.mac "Repetition Position for Node 358 at Satellite" ETV
vector 61 Florasat_Individual_Sats.satellite[0].dlkDSL.mac "Repetition Generation Delay for Node 358 at Satellite" ETV
vector 62 Florasat_Individual_Sats.satellite[0].dlkDSL.mac "Message Generation Delay for Node 358 at Satellite" ETV
vector 63 Florasat_Individual_Sats.satellite[0].dlkDSL.mac "Repetition Position for Node 223 at Satellite" ETV
vector 64 Florasat_Individual_Sats.satellite[0].dlkDSL.mac "Repetition Generation Delay for Node 223 at Satellite" ETV
vector 65 Florasat_Individual_Sats.satellite[0].dlkDSL.mac "Message Generation Delay for Node 223 at Satellite" ETV
vector 66 Florasat_Individual_Sats.satellite[0].dlkDSL.mac "Repetition Position for Node 253 at Satellite" ETV
vector 67 Florasat_Individual_Sats.satellite[0].dlkDSL.mac "Repetition Generation Delay for Node 253 at Satellite" ETV
vector 68 Florasat_Individual_Sats.satellite[0].dlkDSL.mac "Message Generation Delay for Node 253 at Satellite" ETV
vector 69 Florasat_Individual_Sats.satellite[0].dlkDSL.mac "Repetition Position for Node 298 at Satellite" ETV
vector 70 Florasat_Individual_Sats.satellite[0].dlkDSL.mac "Repetition Generation Delay for Node 298 at Satellite" ETV
vector 71 Florasat_Individual_Sats.satellite[0].dlkDSL.mac "Message Generation Delay for Node 298 at Satellite" ETV
vector 72 Florasat_Individual_Sats.satellite[0].dlkDSL.mac "Repetition Position for Node 283 at Satellite" ETV
vector 73 Florasat_Individual_Sats.satellite[0].dlkDSL.mac "Repetition Generation Delay for Node 283 at Satellite" ETV
vector 74 Florasat_Individual_Sats.satellite[0].dlkDSL.mac "Message Generation Delay for Node 283 at Satellite" ETV
vector 75 Florasat_Individual_Sats.satellite[0].dlkDSL.mac "Repetition Position for Node 433 at Satellite" ETV
vector 76 Florasat_Individual_Sats.satellite[0].dlkDSL.mac "Repetition Generation Delay for Node 433 at Satellite" ETV
vector 77 Florasat_Individual_Sats.satellite[0].dlkDSL.mac "Message Generation Delay for Node 433 at Satellite" ETV
vector 78 Florasat_Individual_Sats.satellite[0].dlkDSL.mac "Repetition Position for Node 118 at Satellite" ETV
vector 79 Florasat_Individual_Sats.satellite[0].dlkDSL.mac "Repetition Generation Delay for Node 118 at Satellite" ETV
vector 80 Florasat_Individual_Sats.satellite[0].dlkDSL.mac "Message Generation Delay for Node 118 at Satellite" ETV
vector 81 Florasat_Individual_Sats.satellite[0].dlkDSL.mac "Repetition Position for Node 193 at Satellite" ETV
vector 82 Florasat_Individual_Sats.satellite[0].dlkDSL.mac "Repetition Generation Delay for Node 193 at Satellite" ETV
vector 83 Florasat_Individual_Sats.satellite[0].dlkDSL.mac "Message Generation Delay for Node 193 at Satellite" ETV
vector 84 Florasat_Individual_Sats.satellite[0].dlkDSL.mac "Repetition Position for Node 148 at Satellite" ETV
vector 85 Florasat_Individual_Sats.satellite[0].dlkDSL.mac "Repetition Generation Delay for Node 148 at Satellite" ETV
vector 86 Florasat_Individual_Sats.satellite[0].dlkDSL.mac "Message Generation Delay for Node 148 at Satellite" ETV
0	127	3.11208337293	180
0	158	10.89437517783	180
0	174	12.54467019173	180
0	369	33.8140510789	180
0	386	35.43325120227	180
0	460	43.5709240247	180
0	489	46.98199041247	180
0	493	47.03981630032	180
0	523	49.21634239371	180
0	686	56.5980571887	180
0	753	65.2122739945	180
0	762	66.30862878696	180
0	835	72.43261764737	180
0	864	74.67119298985	180
0	874	74.8084831337	180
0	891	76.87768613746	180
0	908	78.71781483389	180
0	928	80.69970294814	180
0	956	83.04153639222	180
0	972	84.65983265175	180
0	984	85.36646525835	180
0	1014	88.58176850358	180
0	1027	89.46314274793	180
0	1037	90.3647708375	180
0	1050	91.17062703919	180
0	1078	93.50478493319	180
0	1117	95.32634800746	180
0	1132	98.60224166166	180
0	1146	99.43160774363	180
0	1155	100.32147906818	180
0	1252	101.95903293666	180
0	1275	103.63823851397	180
0	1284	104.70356727931	180
0	1372	112.78978320414	180
0	1405	114.8951528041	180
0	1427	117.55313917393	180
0	1453	121.03419286775	180
0	1461	121.62752268946	180
0	1474	122.45037886141	180
0	1543	129.02647624704	180
0	1560	130.94481260925	180
0	1567	131.70595257304	180
0	1585	133.50337920769	180
0	1608	134.47035110782	180
0	1642	137.20260972021	180
0	1656	138.06608362182	180
0	1669	140.07472510779	180
0	1703	143.8614474406	180
0	1714	145.04943927112	180
0	1718	145.30406180866	180
0	1772	148.97882490878	180
0	1887	153.39150429218	180
0	1894	154.13076645689	180
0	1921	155.44564524608	180
0	1990	160.94598433565	180
0	1995	161.22006413935	180
0	2005	162.14543265234	180
0	2027	164.38833227607	180
0	2032	165.04996388665	180
0	2054	167.8257674479	180
0	2074	169.90651600755	180
0	2090	170.88050169231	180
0	2107	172.38893105593	180
0	2111	172.39180842395	180
0	2133	174.04698331586	180
0	2175	177.97507017379	180
0	2180	178.07657925392	180
0	2192	179.02203087637	180
0	2209	180.37309561915	180
0	2232	184.34467763853	180
0	2259	186.86427044627	180
0	2281	187.98160275437	180
0	2303	189.04886075706	180
0	2318	190.479919691	180
0	2339	191.95218939743	180
0	2351	192.50898653286	180
0	2391	196.53462795404	180
0	2400	198.84326694643	180
0	2413	200.1605417306	180
0	2535	203.35446419488	180
0	2545	204.12648317516	180
0	2600	207.87675345542	180
0	2615	208.91261108665	180
0	2638	212.04983413795	180
0	2646	212.39431599797	180
0	2654	212.73490390605	180
0	2667	214.06415549051	180
0	2671	214.88520692432	180
0	2678	215.35537438113	180
0	2695	217.53997954067	180
0	2699	217.56277302223	180
0	2715	218.17045610275	180
0	2730	219.83318968656	180
0	2742	221.60879484475	180
0	2747	221.74215245122	180
0	2759	223.50486223331	180
0	2800	226.96634467103	180
0	2826	228.99427773722	180
0	2852	231.46452680792	180
0	2862	232.13442292174	180
0	2866	232.14058121028	180
0	2886	234.53518825643	180
0	2900	236.09864119034	180
0	2904	236.13675627372	180
0	2919	237.11112647144	180
0	2923	237.40340881043	180
0	2933	238.36326963445	180
0	2944	239.42517666723	180
0	2956	240.1911710422	180
0	2966	240.53023826905	180
0	2985	241.99809132473	180
0	2989	242.28257241836	180
0	3006	245.30566573704	180
0	3027	246.88952813136	180
0	3040	249.0896615186	180
0	3058	250.79860877576	180
0	3065	250.92695265187	180
0	3162	251.13066274965	180
0	3167	251.50998253252	180
0	3177	252.00508768199	180
0	3201	254.25376643057	180
0	3211	255.23784744148	180
0	3225	256.54013852115	180
0	3241	257.68660600357	180
0	3250	258.22299541301	180
0	3258	258.72803285312	180
0	3274	260.57798960822	180
0	3283	262.32550730559	180
0	3300	263.86614608054	180
0	3306	265.14959104107	180
0	3317	266.99726672938	180
0	3353	272.02582681532	180
0	3363	272.95056175435	180
0	3375	274.41445644924	180
0	3381	275.18256617421	180
0	3398	279.55036175031	180
0	3406	280.30316983225	180
0	3420	282.25040266697	180
0	3428	283.69841971763	180
0	3441	286.57748598118	180
0	3457	289.46155496037	180
0	3465	291.40265283584	180
0	3589	303.96759095128	180
0	3594	304.61113829843	180
0	3608	308.4838243607	180
0	3633	319.89143264112	180
0	3650	323.38209589806	180
0	3673	335.11537484224	180
0	3683	336.86874755055	180
0	3810	354.56470689482	180
0	3817	355.974948327	180
0	3830	359.15274622482	180
0	3864	374.82499309328	180
0	3878	377.98033658294	180
0	3887	379.41792307765	180
0	3916	391.62800232393	180
0	3935	399.72800684157	180
0	4044	404.9691330977	180
0	4059	410.92265446148	180
0	4073	413.82684408799	180
0	4111	428.31229107084	180
0	4115	428.5234801529	180
0	4121	428.74582299557	180
0	4142	438.85624667376	180
0	4168	449.52928928951	180
0	4290	461.13562277148	180
0	4318	473.49959333487	180
1	127	3.11208337293	180
1	1718	145.30406180866	180
1	2111	172.39180842395	180
1	2956	240.1911710422	180
1	3608	308.4838243607	180
1	3633	319.89143264112	180
1	3673	335.11537484224	180
1	3830	359.15274622482	180
2	127	3.11208337293	2.11208337293
2	158	10.89437517783	9.89437517783
2	174	12.54467019173	11.54467019173
2	369	33.8140510789	32.8140510789
2	386	35.43325120227	34.43325120227
2	460	43.5709240247	42.5709240247
2	489	46.98199041247	45.98199041247
2	493	47.03981630032	46.03981630032
2	523	49.21634239371	48.21634239371
2	686	56.5980571887	55.5980571887
2	753	65.2122739945	64.2122739945
2	762	66.30862878696	65.30862878696
2	835	72.43261764737	71.43261764737
2	864	74.67119298985	73.67119298985
2	874	74.8084831337	73.8084831337
2	891	76.87768613746	75.87768613746
2	908	78.71781483389	77.71781483389
2	928	80.69970294814	79.69970294814
2	956	83.04153639222	82.04153639222
2	972	84.65983265175	83.65983265175
2	984	85.36646525835	84.36646525835
2	1014	88.58176850358	87.58176850358
2	1027	89.46314274793	88.46314274793
2	1037	90.3647708375	89.3647708375
2	1050	91.17062703919	90.17062703919
2	1078	93.50478493319	92.50478493319
2	1117	95.32634800746	94.32634800746
2	1132	98.60224166166	97.60224166166
2	1146	99.43160774363	98.43160774363
2	1155	100.32147906818	99.32147906818
2	1252	101.95903293666	100.95903293666
2	1275	103.63823851397	102.63823851397
2	1284	104.70356727931	103.70356727931
2	1372	112.78978320414	111.78978320414
2	1405	114.8951528041	113.8951528041
2	1427	117.55313917393	116.55313917393
2	1453	121.03419286775	120.03419286775
2	1461	121.62752268946	120.62752268946
2	1474	122.45037886141	121.45037886141
2	1543	129.02647624704	128.02647624704
2	1560	130.94481260925	129.94481260925
2	1567	131.70595257304	130.70595257304
2	1585	133.50337920769	132.50337920769
2	1608	134.47035110782	133.47035110782
2	1642	137.20260972021	136.20260972021
2	1656	138.06608362182	137.06608362182
2	1669	140.07472510779	139.07472510779
2	1703	143.8614474406	142.8614474406
2	1714	145.04943927112	144.04943927112
2	1718	145.30406180866	144.30406180866
2	1772	148.97882490878	147.97882490878
2	1887	153.39150429218	152.39150429218
2	1894	154.13076645689	153.13076645689
2	1921	155.44564524608	154.44564524608
2	1990	160.94598433565	159.94598433565
2	1995	161.22006413935	160.22006413935
2	2005	162.14543265234	161.14543265234
2	2027	164.38833227607	163.38833227607
2	2032	165.04996388665	164.04996388665
2	2054	167.8257674479	166.8257674479
2	2074	169.90651600755	168.90651600755
2	2090	170.88050169231	169.88050169231
2	2107	172.38893105593	171.38893105593
2	2111	172.39180842395	171.39180842395
2	2133	174.04698331586	173.04698331586
2	2175	177.97507017379	176.97507017379
2	2180	178.07657925392	177.07657925392
2	2192	179.02203087637	178.02203087637
2	2209	180.37309561915	179.37309561915
2	2232	184.34467763853	183.34467763853
2	2259	186.86427044627	185.86427044627
2	2281	187.98160275437	186.98160275437
2	2303	189.04886075706	188.04886075706
2	2318	190.479919691	189.479919691
2	2339	191.95218939743	190.95218939743
2	2351	192.50898653286	191.50898653286
2	2391	196.53462795404	195.53462795404
2	2400	198.84326694643	197.84326694643
2	2413	200.1605417306	199.1605417306
2	2535	203.35446419488	202.35446419488
2	2545	204.12648317516	203.12648317516
2	2600	207.87675345542	206.87675345542
2	2615	208.91261108665	207.91261108665
2	2638	212.04983413795	211.04983413795
2	2646	212.39431599797	211.39431599797
2	2654	212.73490390605	211.73490390605
2	2667	214.06415549051	213.06415549051
2	2671	214.88520692432	213.88520692432
2	2678	215.35537438113	214.35537438113
2	2695	217.53997954067	216.53997954067
2	2699	217.56277302223	216.56277302223
2	2715	218.17045610275	217.17045610275
2	2730	219.83318968656	218.83318968656
2	2742	221.60879484475	220.60879484475
2	2747	221.74215245122	220.74215245122
2	2759	223.50486223331	222.50486223331
2	2800	226.96634467103	225.96634467103
2	2826	228.99427773722	227.99427773722
2	2852	231.46452680792	230.46452680792
2	2862	232.13442292174	231.13442292174
2	2866	232.14058121028	231.14058121028
2	2886	234.53518825643	233.53518825643
2	2900	236.09864119034	235.09864119034
2	2904	236.13675627372	235.13675627372
2	2919	237.11112647144	236.11112647144
2	2923	237.40340881043	236.40340881043
2	2933	238.36326963445	237.36326963445
2	2944	239.42517666723	238.42517666723
2	2956	240.1911710422	239.1911710422
2	2966	240.53023826905	239.53023826905
2	2985	241.99809132473	240.99809132473
2	2989	242.28257241836	241.28257241836
2	3006	245.30566573704	244.30566573704
2	3027	246.88952813136	245.88952813136
2	3040	249.0896615186	248.0896615186
2	3058	250.79860877576	249.79860877576
2	3065	250.92695265187	249.92695265187
2	3162	251.13066274965	250.13066274965
2	3167	251.50998253252	250.50998253252
2	3177	252.00508768199	251.00508768199
2	3201	254.25376643057	253.25376643057
2	3211	255.23784744148	254.23784744148
2	3225	256.54013852115	255.54013852115
2	3241	257.68660600357	256.68660600357
2	3250	258.22299541301	257.22299541301
2	3258	258.72803285312	257.72803285312
2	3274	260.57798960822	259.57798960822
2	3283	262.32550730559	261.32550730559
2	3300	263.86614608054	262.86614608054
2	3306	265.14959104107	264.14959104107
2	3317	266.99726672938	265.99726672938
2	3353	272.02582681532	271.02582681532
2	3363	272.95056175435	271.95056175435
2	3375	274.41445644924	273.41445644924
2	3381	275.18256617421	274.18256617421
2	3398	279.55036175031	278.55036175031
2	3406	280.30316983225	279.30316983225
2	3420	282.25040266697	281.25040266697
2	3428	283.69841971763	282.69841971763
2	3441	286.57748598118	285.57748598118
2	3457	289.46155496037	288.46155496037
2	3465	291.40265283584	290.40265283584
2	3589	303.96759095128	302.96759095128
2	3594	304.61113829843	303.61113829843
2	3608	308.4838243607	307.4838243607
2	3633	319.89143264112	318.89143264112
2	3650	323.38209589806	322.38209589806
2	3673	335.11537484224	334.11537484224
2	3683	336.86874755055	335.86874755055
2	3810	354.56470689482	353.56470689482
2	3817	355.974948327	354.974948327
2	3830	359.15274622482	358.15274622482
2	3864	374.82499309328	373.82499309328
2	3878	377.98033658294	376.98033658294
2	3887	379.41792307765	378.41792307765
2	3916	391.62800232393	390.62800232393
2	3935	399.72800684157	398.72800684157
2	4044	404.9691330977	403.9691330977
2	4059	410.92265446148	409.92265446148
2	4073	413.82684408799	412.82684408799
2	4111	428.31229107084	427.31229107084
2	4115	428.5234801529	427.5234801529
2	4121	428.74582299557	427.74582299557
2	4142	438.85624667376	437.85624667376
2	4168	449.52928928951	448.52928928951
2	4290	461.13562277148	460.13562277148
2	4318	473.49959333487	472.49959333487
3	127	3.11208337293	2.11208337293
3	1718	145.30406180866	144.30406180866
3	2111	172.39180842395	171.39180842395
3	2956	240.1911710422	239.1911710422
3	3608	308.4838243607	307.4838243607
3	3633	319.89143264112	318.89143264112
3	3673	335.11537484224	334.11537484224
3	3830	359.15274622482	358.15274622482
4	127	3.11208337293	2.11208337293
4	158	10.89437517783	9.89437517783
4	174	12.54467019173	11.54467019173
4	369	33.8140510789	32.8140510789
4	386	35.43325120227	34.43325120227
4	460	43.5709240247	42.5709240247
4	489	46.98199041247	45.98199041247
4	523	49.21634239371	48.21634239371
4	753	65.2122739945	64.2122739945
4	762	66.30862878696	65.30862878696
4	835	72.43261764737	71.43261764737
4	891	76.87768613746	75.87768613746
4	928	80.69970294814	79.69970294814
4	972	84.65983265175	83.65983265175
4	1027	89.46314274793	88.46314274793
4	1078	93.50478493319	92.50478493319
4	1117	95.32634800746	94.32634800746
4	1155	100.32147906818	99.32147906818
4	1275	103.63823851397	102.63823851397
4	1461	121.62752268946	120.62752268946
4	1474	122.45037886141	121.45037886141
4	1894	154.13076645689	153.13076645689
4	2054	167.8257674479	166.8257674479
4	2303	189.04886075706	188.04886075706
4	2742	221.60879484475	220.60879484475
4	2759	223.50486223331	222.50486223331
4	3258	258.72803285312	257.72803285312
5	127	3.11208337293	2.11208337293
6	128	3.11208337293	1
6	159	10.89437517783	2
6	175	12.54467019173	3
6	370	33.8140510789	4
6	387	35.43325120227	5
6	461	43.5709240247	6
6	490	46.98199041247	7
6	494	47.03981630032	8
6	524	49.21634239371	9
6	687	56.5980571887	10
6	754	65.2122739945	11
6	763	66.30862878696	12
6	836	72.43261764737	13
6	865	74.67119298985	14
6	875	74.8084831337	15
6	892	76.87768613746	16
6	909	78.71781483389	17
6	929	80.69970294814	18
6	957	83.04153639222	19
6	973	84.65983265175	20
6	985	85.36646525835	21
6	1015	88.58176850358	22
6	1028	89.46314274793	23
6	1038	90.3647708375	24
6	1051	91.17062703919	25
6	1079	93.50478493319	26
6	1118	95.32634800746	27
6	1133	98.60224166166	28
6	1147	99.43160774363	29
6	1156	100.32147906818	30
6	1253	101.95903293666	31
6	1276	103.63823851397	32
6	1285	104.70356727931	33
6	1373	112.78978320414	34
6	1406	114.8951528041	35
6	1428	117.55313917393	36
6	1454	121.03419286775	37
6	1462	121.62752268946	38
6	1475	122.45037886141	39
6	1544	129.02647624704	40
6	1561	130.94481260925	41
6	1568	131.70595257304	42
6	1586	133.50337920769	43
6	1609	134.47035110782	44
6	1643	137.20260972021	45
6	1657	138.06608362182	46
6	1670	140.07472510779	47
6	1704	143.8614474406	48
6	1715	145.04943927112	49
6	1719	145.30406180866	50
6	1773	148.97882490878	51
6	1888	153.39150429218	52
6	1895	154.13076645689	53
6	1922	155.44564524608	54
6	1991	160.94598433565	55
6	1996	161.22006413935	56
6	2006	162.14543265234	57
6	2028	164.38833227607	58
6	2033	165.04996388665	59
6	2055	167.8257674479	60
6	2075	169.90651600755	61
6	2091	170.88050169231	62
6	2108	172.38893105593	63
6	2112	172.39180842395	64
6	2134	174.04698331586	65
6	2176	177.97507017379	66
6	2181	178.07657925392	67
6	2193	179.02203087637	68
6	2210	180.37309561915	69
6	2233	184.34467763853	70
6	2260	186.86427044627	71
6	2282	187.98160275437	72
6	2304	189.04886075706	73
6	2319	190.479919691	74
6	2340	191.95218939743	75
6	2352	192.50898653286	76
6	2392	196.53462795404	77
6	2401	198.84326694643	78
6	2414	200.1605417306	79
6	2536	203.35446419488	80
6	2546	204.12648317516	81
6	2601	207.87675345542	82
6	2616	208.91261108665	83
6	2639	212.04983413795	84
6	2647	212.39431599797	85
6	2655	212.73490390605	86
6	2668	214.06415549051	87
6	2672	214.88520692432	88
6	2679	215.35537438113	89
6	2696	217.53997954067	90
6	2700	217.56277302223	91
6	2716	218.17045610275	92
6	2731	219.83318968656	93
6	2743	221.60879484475	94
6	2748	221.74215245122	95
6	2760	223.50486223331	96
6	2801	226.96634467103	97
6	2827	228.99427773722	98
6	2853	231.46452680792	99
6	2863	232.13442292174	100
6	2867	232.14058121028	101
6	2887	234.53518825643	102
6	2901	236.09864119034	103
6	2905	236.13675627372	104
6	2920	237.11112647144	105
6	2924	237.40340881043	106
6	2934	238.36326963445	107
6	2945	239.42517666723	108
6	2957	240.1911710422	109
6	2967	240.53023826905	110
6	2986	241.99809132473	111
6	2990	242.28257241836	112
6	3007	245.30566573704	113
6	3028	246.88952813136	114
6	3041	249.0896615186	115
6	3059	250.79860877576	116
6	3066	250.92695265187	117
6	3163	251.13066274965	118
6	3168	251.50998253252	119
6	3178	252.00508768199	120
6	3202	254.25376643057	121
6	3212	255.23784744148	122
6	3226	256.54013852115	123
6	3242	257.68660600357	124
6	3251	258.22299541301	125
6	3259	258.72803285312	126
6	3275	260.57798960822	127
6	3284	262.32550730559	128
6	3301	263.86614608054	129
6	3307	265.14959104107	130
6	3318	266.99726672938	131
6	3354	272.02582681532	132
6	3364	272.95056175435	133
6	3376	274.41445644924	134
6	3382	275.18256617421	135
6	3399	279.55036175031	136
6	3407	280.30316983225	137
6	3421	282.25040266697	138
6	3429	283.69841971763	139
6	3442	286.57748598118	140
6	3458	289.46155496037	141
6	3466	291.40265283584	142
6	3590	303.96759095128	143
6	3595	304.61113829843	144
6	3609	308.4838243607	145
6	3634	319.89143264112	146
6	3651	323.38209589806	147
6	3674	335.11537484224	148
6	3684	336.86874755055	149
6	3811	354.56470689482	150
6	3818	355.974948327	151
6	3831	359.15274622482	152
6	3865	374.82499309328	153
6	3879	377.98033658294	154
6	3888	379.41792307765	155
6	3917	391.62800232393	156
6	3936	399.72800684157	157
6	4045	404.9691330977	158
6	4060	410.92265446148	159
6	4074	413.82684408799	160
6	4112	428.31229107084	161
6	4116	428.5234801529	162
6	4122	428.74582299557	163
6	4143	438.85624667376	164
6	4169	449.52928928951	165
6	4291	461.13562277148	166
6	4319	473.49959333487	167
7	128	3.11208337293	1
7	159	10.89437517783	2
7	175	12.54467019173	3
7	370	33.8140510789	4
7	387	35.43325120227	5
7	461	43.5709240247	6
7	490	46.98199041247	7
7	494	47.03981630032	8
7	524	49.21634239371	9
7	687	56.5980571887	10
7	754	65.2122739945	11
7	763	66.30862878696	12
7	836	72.43261764737	13
7	865	74.67119298985	14
7	875	74.8084831337	15
7	892	76.87768613746	16
7	909	78.71781483389	17
7	929	80.69970294814	18
7	957	83.04153639222	19
7	973	84.65983265175	20
7	985	85.36646525835	21
7	1015	88.58176850358	22
7	1028	89.46314274793	23
7	1038	90.3647708375	24
7	1051	91.17062703919	25
7	1079	93.50478493319	26
7	1118	95.32634800746	27
7	1133	98.60224166166	28
7	1147	99.43160774363	29
7	1156	100.32147906818	30
7	1253	101.95903293666	31
7	1276	103.63823851397	32
7	1285	104.70356727931	33
7	1373	112.78978320414	34
7	1406	114.8951528041	35
7	1428	117.55313917393	36
7	1454	121.03419286775	37
7	1462	121.62752268946	38
7	1475	122.45037886141	39
7	1544	129.02647624704	40
7	1561	130.94481260925	41
7	1568	131.70595257304	42
7	1586	133.50337920769	43
7	1609	134.47035110782	44
7	1643	137.20260972021	45
7	1657	138.06608362182	46
7	1670	140.07472510779	47
7	1704	143.8614474406	48
7	1715	145.04943927112	49
7	1719	145.30406180866	50
7	1773	148.97882490878	51
7	1888	153.39150429218	52
7	1895	154.13076645689	53
7	1922	155.44564524608	54
7	1991	160.94598433565	55
7	1996	161.22006413935	56
7	2006	162.14543265234	57
7	2028	164.38833227607	58
7	2033	165.04996388665	59
7	2055	167.8257674479	60
7	2075	169.90651600755	61
7	2091	170.88050169231	62
7	2108	172.38893105593	63
7	2112	172.39180842395	64
7	2134	174.04698331586	65
7	2176	177.97507017379	66
7	2181	178.07657925392	67
7	2193	179.02203087637	68
7	2210	180.37309561915	69
7	2233	184.34467763853	70
7	2260	186.86427044627	71
7	2282	187.98160275437	72
7	2304	189.04886075706	73
7	2319	190.479919691	74
7	2340	191.95218939743	75
7	2352	192.50898653286	76
7	2392	196.53462795404	77
7	2401	198.84326694643	78
7	2414	200.1605417306	79
7	2536	203.35446419488	80
7	2546	204.12648317516	81
7	2601	207.87675345542	82
7	2616	208.91261108665	83
7	2639	212.04983413795	84
7	2647	212.39431599797	85
7	2655	212.73490390605	86
7	2668	214.06415549051	87
7	2672	214.88520692432	88
7	2679	215.35537438113	89
7	2696	217.53997954067	90
7	2700	217.56277302223	91
7	2716	218.17045610275	92
7	2731	219.83318968656	93
7	2743	221.60879484475	94
7	2748	221.74215245122	95
7	2760	223.50486223331	96
7	2801	226.96634467103	97
7	2827	228.99427773722	98
7	2853	231.46452680792	99
7	2863	232.13442292174	100
7	2867	232.14058121028	101
7	2887	234.53518825643	102
7	2901	236.09864119034	103
7	2905	236.13675627372	104
7	2920	237.11112647144	105
7	2924	237.40340881043	106
7	2934	238.36326963445	107
7	2945	239.42517666723	108
7	2957	240.1911710422	109
7	2967	240.53023826905	110
7	2986	241.99809132473	111
7	2990	242.28257241836	112
7	3007	245.30566573704	113
7	3028	246.88952813136	114
7	3041	249.0896615186	115
7	3059	250.79860877576	116
7	3066	250.92695265187	117
7	3163	251.13066274965	118
7	3168	251.50998253252	119
7	3178	252.00508768199	120
7	3202	254.25376643057	121
7	3212	255.23784744148	122
7	3226	256.54013852115	123
7	3242	257.68660600357	124
7	3251	258.22299541301	125
7	3259	258.72803285312	126
7	3275	260.57798960822	127
7	3284	262.32550730559	128
7	3301	263.86614608054	129
7	3307	265.14959104107	130
7	3318	266.99726672938	131
7	3354	272.02582681532	132
7	3364	272.95056175435	133
7	3376	274.41445644924	134
7	3382	275.18256617421	135
7	3399	279.55036175031	136
7	3407	280.30316983225	137
7	3421	282.25040266697	138
7	3429	283.69841971763	139
7	3442	286.57748598118	140
7	3458	289.46155496037	141
7	3466	291.40265283584	142
7	3590	303.96759095128	143
7	3595	304.61113829843	144
7	3609	308.4838243607	145
7	3634	319.89143264112	146
7	3651	323.38209589806	147
7	3674	335.11537484224	148
7	3684	336.86874755055	149
7	3811	354.56470689482	150
7	3818	355.974948327	151
7	3831	359.15274622482	152
7	3865	374.82499309328	153
7	3879	377.98033658294	154
7	3888	379.41792307765	155
7	3917	391.62800232393	156
7	3936	399.72800684157	157
7	4045	404.9691330977	158
7	4060	410.92265446148	159
7	4074	413.82684408799	160
7	4112	428.31229107084	161
7	4116	428.5234801529	162
7	4122	428.74582299557	163
7	4143	438.85624667376	164
7	4169	449.52928928951	165
7	4291	461.13562277148	166
7	4319	473.49959333487	167
8	128	3.11208337293	1
8	159	10.89437517783	2
8	175	12.54467019173	3
8	370	33.8140510789	4
8	387	35.43325120227	5
8	461	43.5709240247	6
8	490	46.98199041247	7
8	494	47.03981630032	8
8	524	49.21634239371	9
8	687	56.5980571887	10
8	754	65.2122739945	11
8	763	66.30862878696	12
8	836	72.43261764737	13
8	865	74.67119298985	14
8	875	74.8084831337	15
8	892	76.87768613746	16
8	909	78.71781483389	17
8	929	80.69970294814	18
8	957	83.04153639222	19
8	973	84.65983265175	20
8	985	85.36646525835	21
8	1015	88.58176850358	22
8	1028	89.46314274793	23
8	1038	90.3647708375	24
8	1051	91.17062703919	25
8	1079	93.50478493319	26
8	1118	95.32634800746	27
8	1133	98.60224166166	28
8	1147	99.43160774363	29
8	1156	100.32147906818	30
8	1253	101.95903293666	31
8	1276	103.63823851397	32
8	1285	104.70356727931	33
8	1373	112.78978320414	34
8	1406	114.8951528041	35
8	1428	117.55313917393	36
8	1454	121.03419286775	37
8	1462	121.62752268946	38
8	1475	122.45037886141	39
8	1544	129.02647624704	40
8	1561	130.94481260925	41
8	1568	131.70595257304	42
8	1586	133.50337920769	43
8	1609	134.47035110782	44
8	1643	137.20260972021	45
8	1657	138.06608362182	46
8	1670	140.07472510779	47
8	1704	143.8614474406	48
8	1715	145.04943927112	49
8	1719	145.30406180866	50
8	1773	148.97882490878	51
8	1888	153.39150429218	52
8	1895	154.13076645689	53
8	1922	155.44564524608	54
8	1991	160.94598433565	55
8	1996	161.22006413935	56
8	2006	162.14543265234	57
8	2028	164.38833227607	58
8	2033	165.04996388665	59
8	2055	167.8257674479	60
8	2075	169.90651600755	61
8	2091	170.88050169231	62
8	2108	172.38893105593	63
8	2112	172.39180842395	64
8	2134	174.04698331586	65
8	2176	177.97507017379	66
8	2181	178.07657925392	67
8	2193	179.02203087637	68
8	2210	180.37309561915	69
8	2233	184.34467763853	70
8	2260	186.86427044627	71
8	2282	187.98160275437	72
8	2304	189.04886075706	73
8	2319	190.479919691	74
8	2340	191.95218939743	75
8	2352	192.50898653286	76
8	2392	196.53462795404	77
8	2401	198.84326694643	78
8	2414	200.1605417306	79
8	2536	203.35446419488	80
8	2546	204.12648317516	81
8	2601	207.87675345542	82
8	2616	208.91261108665	83
8	2639	212.04983413795	84
8	2647	212.39431599797	85
8	2655	212.73490390605	86
8	2668	214.06415549051	87
8	2672	214.88520692432	88
8	2679	215.35537438113	89
8	2696	217.53997954067	90
8	2700	217.56277302223	91
8	2716	218.17045610275	92
8	2731	219.83318968656	93
8	2743	221.60879484475	94
8	2748	221.74215245122	95
8	2760	223.50486223331	96
8	2801	226.96634467103	97
8	2827	228.99427773722	98
8	2853	231.46452680792	99
8	2863	232.13442292174	100
8	2867	232.14058121028	101
8	2887	234.53518825643	102
8	2901	236.09864119034	103
8	2905	236.13675627372	104
8	2920	237.11112647144	105
8	2924	237.40340881043	106
8	2934	238.36326963445	107
8	2945	239.42517666723	108
8	2957	240.1911710422	109
8	2967	240.53023826905	110
8	2986	241.99809132473	111
8	2990	242.28257241836	112
8	3007	245.30566573704	113
8	3028	246.88952813136	114
8	3041	249.0896615186	115
8	3059	250.79860877576	116
8	3066	250.92695265187	117
8	3163	251.13066274965	118
8	3168	251.50998253252	119
8	3178	252.00508768199	120
8	3202	254.25376643057	121
8	3212	255.23784744148	122
8	3226	256.54013852115	123
8	3242	257.68660600357	124
8	3251	258.22299541301	125
8	3259	258.72803285312	126
8	3275	260.57798960822	127
8	3284	262.32550730559	128
8	3301	263.86614608054	129
8	3307	265.14959104107	130
8	3318	266.99726672938	131
8	3354	272.02582681532	132
8	3364	272.95056175435	133
8	3376	274.41445644924	134
8	3382	275.18256617421	135
8	3399	279.55036175031	136
8	3407	280.30316983225	137
8	3421	282.25040266697	138
8	3429	283.69841971763	139
8	3442	286.57748598118	140
8	3458	289.46155496037	141
8	3466	291.40265283584	142
8	3590	303.96759095128	143
8	3595	304.61113829843	144
8	3609	308.4838243607	145
8	3634	319.89143264112	146
8	3651	323.38209589806	147
8	3674	335.11537484224	148
8	3684	336.86874755055	149
8	3811	354.56470689482	150
8	3818	355.974948327	151
8	3831	359.15274622482	152
8	3865	374.82499309328	153
8	3879	377.98033658294	154
8	3888	379.41792307765	155
8	3917	391.62800232393	156
8	3936	399.72800684157	157
8	4045	404.9691330977	158
8	4060	410.92265446148	159
8	4074	413.82684408799	160
8	4112	428.31229107084	161
8	4116	428.5234801529	162
8	4122	428.74582299557	163
8	4143	438.85624667376	164
8	4169	449.52928928951	165
8	4291	461.13562277148	166
8	4319	473.49959333487	167
9	158	10.89437517783	180
9	908	78.71781483389	180
9	1050	91.17062703919	180
9	2671	214.88520692432	180
9	2904	236.13675627372	180
10	158	10.89437517783	9.89437517783
10	908	78.71781483389	77.71781483389
10	1050	91.17062703919	90.17062703919
10	2671	214.88520692432	213.88520692432
10	2904	236.13675627372	235.13675627372
11	158	10.89437517783	9.89437517783
12	174	12.54467019173	180
12	686	56.5980571887	180
12	874	74.8084831337	180
12	1146	99.43160774363	180
12	2107	172.38893105593	180
12	2259	186.86427044627	180
12	2989	242.28257241836	180
12	3211	255.23784744148	180
13	174	12.54467019173	11.54467019173
13	686	56.5980571887	55.5980571887
13	874	74.8084831337	73.8084831337
13	1146	99.43160774363	98.43160774363
13	2107	172.38893105593	171.38893105593
13	2259	186.86427044627	185.86427044627
13	2989	242.28257241836	241.28257241836
13	3211	255.23784744148	254.23784744148
14	174	12.54467019173	11.54467019173
15	369	33.8140510789	180
15	3006	245.30566573704	180
15	3916	391.62800232393	180
15	4044	404.9691330977	180
15	4111	428.31229107084	180
15	4142	438.85624667376	180
15	4290	461.13562277148	180
16	369	33.8140510789	32.8140510789
16	3006	245.30566573704	244.30566573704
16	3916	391.62800232393	390.62800232393
16	4044	404.9691330977	403.9691330977
16	4111	428.31229107084	427.31229107084
16	4142	438.85624667376	437.85624667376
16	4290	461.13562277148	460.13562277148
17	369	33.8140510789	32.8140510789
18	386	35.43325120227	180
18	493	47.03981630032	180
18	864	74.67119298985	180
18	1014	88.58176850358	180
18	1372	112.78978320414	180
18	2074	169.90651600755	180
18	2351	192.50898653286	180
18	2638	212.04983413795	180
18	2800	226.96634467103	180
18	3274	260.57798960822	180
19	386	35.43325120227	34.43325120227
19	493	47.03981630032	46.03981630032
19	864	74.67119298985	73.67119298985
19	1014	88.58176850358	87.58176850358
19	1372	112.78978320414	111.78978320414
19	2074	169.90651600755	168.90651600755
19	2351	192.50898653286	191.50898653286
19	2638	212.04983413795	211.04983413795
19	2800	226.96634467103	225.96634467103
19	3274	260.57798960822	259.57798960822
20	386	35.43325120227	34.43325120227
21	460	43.5709240247	180
21	1703	143.8614474406	180
21	2535	203.35446419488	180
21	2667	214.06415549051	180
21	2866	232.14058121028	180
22	460	43.5709240247	42.5709240247
22	1703	143.8614474406	142.8614474406
22	2535	203.35446419488	202.35446419488
22	2667	214.06415549051	213.06415549051
22	2866	232.14058121028	231.14058121028
23	460	43.5709240247	42.5709240247
24	489	46.98199041247	180
24	2209	180.37309561915	180
24	3162	251.13066274965	180
25	489	46.98199041247	45.98199041247
25	2209	180.37309561915	179.37309561915
25	3162	251.13066274965	250.13066274965
26	489	46.98199041247	45.98199041247
27	523	49.21634239371	180
27	984	85.36646525835	180
27	1252	101.95903293666	180
27	2175	177.97507017379	180
27	2400	198.84326694643	180
27	2715	218.17045610275	180
27	2923	237.40340881043	180
27	3167	251.50998253252	180
28	523	49.21634239371	48.21634239371
28	984	85.36646525835	84.36646525835
28	1252	101.95903293666	100.95903293666
28	2175	177.97507017379	176.97507017379
28	2400	198.84326694643	197.84326694643
28	2715	218.17045610275	217.17045610275
28	2923	237.40340881043	236.40340881043
28	3167	251.50998253252	250.50998253252
29	523	49.21634239371	48.21634239371
30	753	65.2122739945	180
30	956	83.04153639222	180
30	1284	104.70356727931	180
30	1543	129.02647624704	180
30	1669	140.07472510779	180
30	1990	160.94598433565	180
30	2180	178.07657925392	180
30	2391	196.53462795404	180
30	2730	219.83318968656	180
30	2852	231.46452680792	180
30	3201	254.25376643057	180
30	3428	283.69841971763	180
31	753	65.2122739945	64.2122739945
31	956	83.04153639222	82.04153639222
31	1284	104.70356727931	103.70356727931
31	1543	129.02647624704	128.02647624704
31	1669	140.07472510779	139.07472510779
31	1990	160.94598433565	159.94598433565
31	2180	178.07657925392	177.07657925392
31	2391	196.53462795404	195.53462795404
31	2730	219.83318968656	218.83318968656
31	2852	231.46452680792	230.46452680792
31	3201	254.25376643057	253.25376643057
31	3428	283.69841971763	282.69841971763
32	753	65.2122739945	64.2122739945
33	762	66.30862878696	180
33	1037	90.3647708375	180
33	1560	130.94481260925	180
33	1714	145.04943927112	180
33	2413	200.1605417306	180
33	2900	236.09864119034	180
33	4059	410.92265446148	180
33	4121	428.74582299557	180
33	4168	449.52928928951	180
33	4318	473.49959333487	180
34	762	66.30862878696	65.30862878696
34	1037	90.3647708375	89.3647708375
34	1560	130.94481260925	129.94481260925
34	1714	145.04943927112	144.04943927112
34	2413	200.1605417306	199.1605417306
34	2900	236.09864119034	235.09864119034
34	4059	410.92265446148	409.92265446148
34	4121	428.74582299557	427.74582299557
34	4168	449.52928928951	448.52928928951
34	4318	473.49959333487	472.49959333487
35	762	66.30862878696	65.30862878696
36	835	72.43261764737	180
36	1132	98.60224166166	180
36	2133	174.04698331586	180
36	3250	258.22299541301	180
37	835	72.43261764737	71.43261764737
37	1132	98.60224166166	97.60224166166
37	2133	174.04698331586	173.04698331586
37	3250	258.22299541301	257.22299541301
38	835	72.43261764737	71.43261764737
39	891	76.87768613746	180
39	1656	138.06608362182	180
39	1995	161.22006413935	180
39	2192	179.02203087637	180
39	2826	228.99427773722	180
39	3300	263.86614608054	180
39	3420	282.25040266697	180
40	891	76.87768613746	75.87768613746
40	1656	138.06608362182	137.06608362182
40	1995	161.22006413935	160.22006413935
40	2192	179.02203087637	178.02203087637
40	2826	228.99427773722	227.99427773722
40	3300	263.86614608054	262.86614608054
40	3420	282.25040266697	281.25040266697
41	891	76.87768613746	75.87768613746
42	928	80.69970294814	180
42	3353	272.02582681532	180
43	928	80.69970294814	79.69970294814
43	3353	272.02582681532	271.02582681532
44	928	80.69970294814	79.69970294814
45	972	84.65983265175	180
45	3040	249.0896615186	180
45	3317	266.99726672938	180
45	3441	286.57748598118	180
46	972	84.65983265175	83.65983265175
46	3040	249.0896615186	248.0896615186
46	3317	266.99726672938	265.99726672938
46	3441	286.57748598118	285.57748598118
47	972	84.65983265175	83.65983265175
48	1027	89.46314274793	180
48	1453	121.03419286775	180
48	1608	134.47035110782	180
48	2027	164.38833227607	180
48	2281	187.98160275437	180
48	2600	207.87675345542	180
48	2966	240.53023826905	180
48	3225	256.54013852115	180
48	3406	280.30316983225	180
48	3589	303.96759095128	180
49	1027	89.46314274793	88.46314274793
49	1453	121.03419286775	120.03419286775
49	1608	134.47035110782	133.47035110782
49	2027	164.38833227607	163.38833227607
49	2281	187.98160275437	186.98160275437
49	2600	207.87675345542	206.87675345542
49	2966	240.53023826905	239.53023826905
49	3225	256.54013852115	255.54013852115
49	3406	280.30316983225	279.30316983225
49	3589	303.96759095128	302.96759095128
50	1027	89.46314274793	88.46314274793
51	1078	93.50478493319	180
51	2005	162.14543265234	180
51	2699	217.56277302223	180
51	2919	237.11112647144	180
52	1078	93.50478493319	92.50478493319
52	2005	162.14543265234	161.14543265234
52	2699	217.56277302223	216.56277302223
52	2919	237.11112647144	236.11112647144
53	1078	93.50478493319	92.50478493319
54	1117	95.32634800746	180
54	1427	117.55313917393	180
54	1642	137.20260972021	180
54	1887	153.39150429218	180
54	2032	165.04996388665	180
54	2232	184.34467763853	180
54	2615	208.91261108665	180
54	2985	241.99809132473	180
54	3283	262.32550730559	180
54	3375	274.41445644924	180
55	1117	95.32634800746	94.32634800746
55	1427	117.55313917393	116.55313917393
55	1642	137.20260972021	136.20260972021
55	1887	153.39150429218	152.39150429218
55	2032	165.04996388665	164.04996388665
55	2232	184.34467763853	183.34467763853
55	2615	208.91261108665	207.91261108665
55	2985	241.99809132473	240.99809132473
55	3283	262.32550730559	261.32550730559
55	3375	274.41445644924	273.41445644924
56	1117	95.32634800746	94.32634800746
57	1155	100.32147906818	180
57	2654	212.73490390605	180
57	3058	250.79860877576	180
57	3306	265.14959104107	180
58	1155	100.32147906818	99.32147906818
58	2654	212.73490390605	211.73490390605
58	3058	250.79860877576	249.79860877576
58	3306	265.14959104107	264.14959104107
59	1155	100.32147906818	99.32147906818
60	1275	103.63823851397	180
60	1405	114.8951528041	180
60	1585	133.50337920769	180
60	1921	155.44564524608	180
60	2090	170.88050169231	180
60	2339	191.95218939743	180
60	2646	212.39431599797	180
60	2886	234.53518825643	180
60	3241	257.68660600357	180
60	3381	275.18256617421	180
60	3465	291.40265283584	180
61	1275	103.63823851397	102.63823851397
61	1405	114.8951528041	113.8951528041
61	1585	133.50337920769	132.50337920769
61	1921	155.44564524608	154.44564524608
61	2090	170.88050169231	169.88050169231
61	2339	191.95218939743	190.95218939743
61	2646	212.39431599797	211.39431599797
61	2886	234.53518825643	233.53518825643
61	3241	257.68660600357	256.68660600357
61	3381	275.18256617421	274.18256617421
61	3465	291.40265283584	290.40265283584
62	1275	103.63823851397	102.63823851397
63	1461	121.62752268946	180
63	1567	131.70595257304	180
63	1772	148.97882490878	180
63	2695	217.53997954067	180
63	2862	232.13442292174	180
63	3065	250.92695265187	180
63	3817	355.974948327	180
63	3887	379.41792307765	180
64	1461	121.62752268946	120.62752268946
64	1567	131.70595257304	130.70595257304
64	1772	148.97882490878	147.97882490878
64	2695	217.53997954067	216.53997954067
64	2862	232.13442292174	231.13442292174
64	3065	250.92695265187	249.92695265187
64	3817	355.974948327	354.974948327
64	3887	379.41792307765	378.41792307765
65	1461	121.62752268946	120.62752268946
66	1474	122.45037886141	180
66	2318	190.479919691	180
66	2933	238.36326963445	180
67	1474	122.45037886141	121.45037886141
67	2318	190.479919691	189.479919691
67	2933	238.36326963445	237.36326963445
68	1474	122.45037886141	121.45037886141
69	1894	154.13076645689	180
69	3177	252.00508768199	180
69	3363	272.95056175435	180
69	3878	377.98033658294	180
69	3935	399.72800684157	180
69	4073	413.82684408799	180
69	4115	428.5234801529	180
70	1894	154.13076645689	153.13076645689
70	3177	252.00508768199	251.00508768199
70	3363	272.95056175435	271.95056175435
70	3878	377.98033658294	376.98033658294
70	3935	399.72800684157	398.72800684157
70	4073	413.82684408799	412.82684408799
70	4115	428.5234801529	427.5234801529
71	1894	154.13076645689	153.13076645689
72	2054	167.8257674479	180
72	2545	204.12648317516	180
72	2678	215.35537438113	180
72	2944	239.42517666723	180
73	2054	167.8257674479	166.8257674479
73	2545	204.12648317516	203.12648317516
73	2678	215.35537438113	214.35537438113
73	2944	239.42517666723	238.42517666723
74	2054	167.8257674479	166.8257674479
75	2303	189.04886075706	180
75	2747	221.74215245122	180
76	2303	189.04886075706	188.04886075706
76	2747	221.74215245122	220.74215245122
77	2303	189.04886075706	188.04886075706
78	2742	221.60879484475	180
79	2742	221.60879484475	220.60879484475
80	2742	221.60879484475	220.60879484475
81	2759	223.50486223331	180
81	3027	246.88952813136	180
81	3457	289.46155496037	180
81	3594	304.61113829843	180
81	3650	323.38209589806	180
81	3683	336.86874755055	180
81	3810	354.56470689482	180
81	3864	374.82499309328	180
82	2759	223.50486223331	222.50486223331
82	3027	246.88952813136	245.88952813136
82	3457	289.46155496037	288.46155496037
82	3594	304.61113829843	303.61113829843
82	3650	323.38209589806	322.38209589806
82	3683	336.86874755055	335.86874755055
82	3810	354.56470689482	353.56470689482
82	3864	374.82499309328	373.82499309328
83	2759	223.50486223331	222.50486223331
84	3258	258.72803285312	180
84	3398	279.55036175031	180
85	3258	258.72803285312	257.72803285312
85	3398	279.55036175031	278.55036175031
86	3258	258.72803285312	257.72803285312

