file 57525 1779838380                                           
version 3
run General-3-20260527-01:32:55-720927
attr configname General
attr datetime 20260527-01:32:55
attr datetimef 20260527-013255
attr experiment General
attr inifile Test_MLModel_1.ini
attr iterationvars $0=42781
attr iterationvarsd 42781
attr iterationvarsf 42781-
attr measurement $0=42781
attr network Florasat.Test_Individual.Florasat_Individual_Sats
attr processid 720927
attr repetition 3
attr replication #3
attr resultdir results
attr runnumber 3
attr seedset 3
config *.satellite[0].NoradModule.raan 185
config *.stats_altitude 670
config *.stats_raan 185
config image-path ../../images:../../../../samples/inet4.5_2/images
config network Florasat.Test_Individual.Florasat_Individual_Sats
config rng-class cMersenneTwister
config *.**.result-recording-modes -
config **.result-recording-modes -
config **.statistic-recording true
config **.scalar-recording true
config **.vector-recording true
config **.vector-record-eventnumbers true
config repeat 10
config seed-0-mt 42781
config sim-time-limit 749s
config simtime-resolution -11
config **.stats_altitude 670
config **.stats_raan 185
config *.radioMedium.backgroundNoise.power -110dBm
config *.radioMedium.mediumLimitCache.centerFrequency 868MHz
config *.radioMedium.mediumLimitCache.maxTransmissionDuration 4s
config *.radioMedium.mediumLimitCache.minInterferenceTime 0s
config **.numSatellites 1
config *.satellite[*].mobilityType "\"Sat_Mob_SatelliteMobility_Standalone\""
config *.satellite[*].noradModuleType "\"Sat_Mob_NoradA\""
config **.satellite[*].**.initFromDisplayString false
config *.satellite[*].mobility.faceForward true
config *.satellite[*].mobility.updateInterval 20s
config *.satellite[*].NoradModule.satName "\"FLoRaSat\""
config *.satellite[*].NoradModule.satIndex -1
config *.satellite[*].NoradModule.baseYear 20
config *.satellite[*].NoradModule.baseDay 1.5
config *.satellite[*].NoradModule.planes 1
config *.satellite[*].NoradModule.satPerPlane 1
config *.satellite[*].NoradModule.eccentricity 0.000001
config *.satellite[*].NoradModule.inclination 98
config *.satellite[*].NoradModule.altitude 670
config *.satellite[0].NoradModule.raan 185
config *.satellite[0].NoradModule.meanAnomaly 195
config *.satellite[*].phyDSL.radio.receiver.enableCollisionOverlap true
config *.satellite[*].phyDSL.radio.receiver.minCollisionOverlap 0s
config *.satellite[*].phyDSL.radio.antenna.typename ConstantGainAntenna
config *.satellite[*].phyDSL.radio.antenna.mobilityModule "\"^.^.^.mobility\""
config *.satellite[*].phyISL.radio.antenna.mobilityModule "\"^.^.^.mobility\""
config *.satellite[*].phyGSL.radio.antenna.mobilityModule "\"^.^.^.mobility\""
config *.satellite[*].phyDSL.radio.antenna.gain 12dB
config *.satellite[*].net.routingType "\"Null_Routing\""
config *.terminal[*].net.routingType "\"Ter_Null_Routing\""
config *.**.numGroundLinks 40
config *.satellite[*].**.interfaceTableModule "\"\""
config **.radioMedium.typename LoRaMedium
config **.radioMedium.analogModel.typename LoRaAnalogModel
config **.intraPlaneIslDisabled false
config **.interPlaneIslDisabled false
config **.numTerminals 30
config *.terminal[*].phy.radio.antenna.mobilityModule "\"^.^.^.mob\""
config *.terminal[*].dlk.mac.interfaceTableModule "\"\""
config *.terminal[*].dlk.energySourceModule "\"\""
config *.terminal[*].dlk.mac.LoRaTP "intuniform(12, 14)"
config *.terminal[*].dlk.mac.LoRaSF "intuniform(10, 12)"
config *.terminal[*].dlk.mac.useMLBox true
config *.terminal[*].dlk.mac.mlBox.modelPath "\"/home/ylnner/Documents/omnet++/omnetpp-6.3.0/projects/florasat_v4_ult_routing/simulations/Test_Individual/mlmodels/transformer_scripted.pt\""
config **.numberOfPacketsToSend 0
config **.timeToFirstPacket 1s
config **.timeToNextPacket 50s
config *.terminal[0].mob.radius 0.0
config *.terminal[0].mob.centerLatitude 54.978
config *.terminal[0].mob.centerLongitude -1.617
config *.terminal[1].mob.radius 0.0
config *.terminal[1].mob.centerLatitude 52.630
config *.terminal[1].mob.centerLongitude -1.139
config *.terminal[2].mob.radius 0.0
config *.terminal[2].mob.centerLatitude 52.612
config *.terminal[2].mob.centerLongitude -6.295
config *.terminal[3].mob.radius 0.0
config *.terminal[3].mob.centerLatitude 47.243
config *.terminal[3].mob.centerLongitude 6.024
config *.terminal[4].mob.radius 0.0
config *.terminal[4].mob.centerLatitude 43.610
config *.terminal[4].mob.centerLongitude 3.876
config *.terminal[5].mob.radius 0.0
config *.terminal[5].mob.centerLatitude 49.443
config *.terminal[5].mob.centerLongitude 1.099
config *.terminal[6].mob.radius 0.0
config *.terminal[6].mob.centerLatitude 37.992
config *.terminal[6].mob.centerLongitude -1.130
config *.terminal[7].mob.radius 0.0
config *.terminal[7].mob.centerLatitude 40.965
config *.terminal[7].mob.centerLongitude -5.664
config *.terminal[8].mob.radius 0.0
config *.terminal[8].mob.centerLatitude 40.657
config *.terminal[8].mob.centerLongitude -7.914
config *.terminal[9].mob.radius 0.0
config *.terminal[9].mob.centerLatitude 51.340
config *.terminal[9].mob.centerLongitude 12.373
config *.terminal[10].mob.radius 0.0
config *.terminal[10].mob.centerLatitude 51.455
config *.terminal[10].mob.centerLongitude 7.011
config *.terminal[11].mob.radius 0.0
config *.terminal[11].mob.centerLatitude 49.452
config *.terminal[11].mob.centerLongitude 11.076
config *.terminal[12].mob.radius 0.0
config *.terminal[12].mob.centerLatitude 43.769
config *.terminal[12].mob.centerLongitude 11.255
config *.terminal[13].mob.radius 0.0
config *.terminal[13].mob.centerLatitude 41.117
config *.terminal[13].mob.centerLongitude 16.871
config *.terminal[14].mob.radius 0.0
config *.terminal[14].mob.centerLatitude 52.132
config *.terminal[14].mob.centerLongitude 5.291
config *.terminal[15].mob.radius 0.0
config *.terminal[15].mob.centerLatitude 50.411
config *.terminal[15].mob.centerLongitude 4.444
config *.terminal[16].mob.radius 0.0
config *.terminal[16].mob.centerLatitude 47.559
config *.terminal[16].mob.centerLongitude 7.588
config *.terminal[17].mob.radius 0.0
config *.terminal[17].mob.centerLatitude 55.403
config *.terminal[17].mob.centerLongitude 10.402
config *.terminal[18].mob.radius 0.0
config *.terminal[18].mob.centerLatitude 59.858
config *.terminal[18].mob.centerLongitude 17.638
config *.terminal[19].mob.radius 0.0
config *.terminal[19].mob.centerLatitude 60.451
config *.terminal[19].mob.centerLongitude 22.266
config *.terminal[20].mob.radius 0.0
config *.terminal[20].mob.centerLatitude 56.325
config *.terminal[20].mob.centerLongitude 22.349
config *.terminal[21].mob.radius 0.0
config *.terminal[21].mob.centerLatitude 49.883
config *.terminal[21].mob.centerLongitude 18.568
config *.terminal[22].mob.radius 0.0
config *.terminal[22].mob.centerLatitude 47.531
config *.terminal[22].mob.centerLongitude 21.627
config *.terminal[23].mob.radius 0.0
config *.terminal[23].mob.centerLatitude 44.179
config *.terminal[23].mob.centerLongitude 28.649
config *.terminal[24].mob.radius 0.0
config *.terminal[24].mob.centerLatitude 45.327
config *.terminal[24].mob.centerLongitude 14.442
config *.terminal[25].mob.radius 0.0
config *.terminal[25].mob.centerLatitude 40.694
config *.terminal[25].mob.centerLongitude 30.400
config *.terminal[26].mob.radius 0.0
config *.terminal[26].mob.centerLatitude 37.066
config *.terminal[26].mob.centerLongitude 37.383
config *.terminal[27].mob.radius 0.0
config *.terminal[27].mob.centerLatitude 64.836
config *.terminal[27].mob.centerLongitude -23.708
config *.terminal[28].mob.radius 0.0
config *.terminal[28].mob.centerLatitude 28.099
config *.terminal[28].mob.centerLongitude -17.113
config *.terminal[29].mob.radius 0.0
config *.terminal[29].mob.centerLatitude 34.921
config *.terminal[29].mob.centerLongitude 33.623
config **.numStations 3
config **.numStations 3
config *.station[0].mobility.latitude 55.752
config *.station[0].mobility.longitude 37.616
config *.station[0].cityName "\"Moscow\""
config *.station[0].groundStationId 7
config *.station[0].routerAddr "\"10.0.0.29\""
config *.station[0].serving "\"10.0.0.29\""
config *.station[1].mobility.latitude 28.652
config *.station[1].mobility.longitude 77.231
config *.station[1].cityName "\"Delhi\""
config *.station[1].groundStationId 11
config *.station[1].routerAddr "\"10.0.0.45\""
config *.station[1].serving "\"10.0.0.45\""
config *.station[2].mobility.latitude 25.35
config *.station[2].mobility.longitude 51.24
config *.station[2].cityName "\"Katar\""
config *.station[2].groundStationId 19
config *.station[2].routerAddr "\"10.0.0.77\""
config *.station[2].serving "\"10.0.0.77\""
config *.visualizer.canvasVisualizer.mediumVisualizer.typename ""
config *.visualizer.*.radioVisualizer.displayAntennaLobes true
config *.visualizer.*.dataLinkVisualizer.displayLinks true
config *.visualizer.*.mobilityVisualizer.displayMovementTrails true
config *.visualizer.*.mobilityVisualizer.movementTrailLineWidth 1
config *.visualizer.*.mobilityVisualizer.trailLength 3000
config **.ttxStart_max 30s
config **.ttxIdle_min 10s
config **.ttxIdle_max 25s
config **.Ntw 2
config **.Ntx 45
config **.ttwDuration 550s

vector 0 Florasat_Individual_Sats.satellite[0].dlkDSL.mac "Satellite Position when Repetition Received" ETV
vector 1 Florasat_Individual_Sats.satellite[0].dlkDSL.mac "Repetition Position for Node 358 at Satellite" ETV
vector 2 Florasat_Individual_Sats.satellite[0].dlkDSL.mac "All Nodes Repetition Generation Delay at Satellite" ETV
vector 3 Florasat_Individual_Sats.satellite[0].dlkDSL.mac "Repetition Generation Delay for Node 358 at Satellite" ETV
vector 4 Florasat_Individual_Sats.satellite[0].dlkDSL.mac "All Nodes Message Generation Delay at Satellite" ETV
vector 5 Florasat_Individual_Sats.satellite[0].dlkDSL.mac "Message Generation Delay for Node 358 at Satellite" ETV
vector 6 Florasat_Individual_Sats.satellite[0].net.packetHandler "packets received" ETV
vector 7 Florasat_Individual_Sats.satellite[0].net.packetHandler "dropped unroutable" ETV
vector 8 Florasat_Individual_Sats.satellite[0].net.packetHandler "packets dropped" ETV
vector 9 Florasat_Individual_Sats.satellite[0].dlkDSL.mac "Repetition Position for Node 313 at Satellite" ETV
vector 10 Florasat_Individual_Sats.satellite[0].dlkDSL.mac "Repetition Generation Delay for Node 313 at Satellite" ETV
vector 11 Florasat_Individual_Sats.satellite[0].dlkDSL.mac "Message Generation Delay for Node 313 at Satellite" ETV
vector 12 Florasat_Individual_Sats.satellite[0].dlkDSL.mac "Repetition Position for Node 193 at Satellite" ETV
vector 13 Florasat_Individual_Sats.satellite[0].dlkDSL.mac "Repetition Generation Delay for Node 193 at Satellite" ETV
vector 14 Florasat_Individual_Sats.satellite[0].dlkDSL.mac "Message Generation Delay for Node 193 at Satellite" ETV
vector 15 Florasat_Individual_Sats.satellite[0].dlkDSL.mac "Repetition Position for Node 463 at Satellite" ETV
vector 16 Florasat_Individual_Sats.satellite[0].dlkDSL.mac "Repetition Generation Delay for Node 463 at Satellite" ETV
vector 17 Florasat_Individual_Sats.satellite[0].dlkDSL.mac "Message Generation Delay for Node 463 at Satellite" ETV
vector 18 Florasat_Individual_Sats.satellite[0].dlkDSL.mac "Repetition Position for Node 58 at Satellite" ETV
vector 19 Florasat_Individual_Sats.satellite[0].dlkDSL.mac "Repetition Generation Delay for Node 58 at Satellite" ETV
vector 20 Florasat_Individual_Sats.satellite[0].dlkDSL.mac "Message Generation Delay for Node 58 at Satellite" ETV
vector 21 Florasat_Individual_Sats.satellite[0].dlkDSL.mac "Repetition Position for Node 343 at Satellite" ETV
vector 22 Florasat_Individual_Sats.satellite[0].dlkDSL.mac "Repetition Generation Delay for Node 343 at Satellite" ETV
vector 23 Florasat_Individual_Sats.satellite[0].dlkDSL.mac "Message Generation Delay for Node 343 at Satellite" ETV
vector 24 Florasat_Individual_Sats.satellite[0].dlkDSL.mac "Repetition Position for Node 283 at Satellite" ETV
vector 25 Florasat_Individual_Sats.satellite[0].dlkDSL.mac "Repetition Generation Delay for Node 283 at Satellite" ETV
vector 26 Florasat_Individual_Sats.satellite[0].dlkDSL.mac "Message Generation Delay for Node 283 at Satellite" ETV
vector 27 Florasat_Individual_Sats.satellite[0].dlkDSL.mac "Repetition Position for Node 73 at Satellite" ETV
vector 28 Florasat_Individual_Sats.satellite[0].dlkDSL.mac "Repetition Generation Delay for Node 73 at Satellite" ETV
vector 29 Florasat_Individual_Sats.satellite[0].dlkDSL.mac "Message Generation Delay for Node 73 at Satellite" ETV
vector 30 Florasat_Individual_Sats.satellite[0].dlkDSL.mac "Repetition Position for Node 298 at Satellite" ETV
vector 31 Florasat_Individual_Sats.satellite[0].dlkDSL.mac "Repetition Generation Delay for Node 298 at Satellite" ETV
vector 32 Florasat_Individual_Sats.satellite[0].dlkDSL.mac "Message Generation Delay for Node 298 at Satellite" ETV
vector 33 Florasat_Individual_Sats.satellite[0].dlkDSL.mac "Repetition Position for Node 223 at Satellite" ETV
vector 34 Florasat_Individual_Sats.satellite[0].dlkDSL.mac "Repetition Generation Delay for Node 223 at Satellite" ETV
vector 35 Florasat_Individual_Sats.satellite[0].dlkDSL.mac "Message Generation Delay for Node 223 at Satellite" ETV
vector 36 Florasat_Individual_Sats.satellite[0].dlkDSL.mac "Repetition Position for Node 268 at Satellite" ETV
vector 37 Florasat_Individual_Sats.satellite[0].dlkDSL.mac "Repetition Generation Delay for Node 268 at Satellite" ETV
vector 38 Florasat_Individual_Sats.satellite[0].dlkDSL.mac "Message Generation Delay for Node 268 at Satellite" ETV
vector 39 Florasat_Individual_Sats.satellite[0].dlkDSL.mac "Repetition Position for Node 388 at Satellite" ETV
vector 40 Florasat_Individual_Sats.satellite[0].dlkDSL.mac "Repetition Generation Delay for Node 388 at Satellite" ETV
vector 41 Florasat_Individual_Sats.satellite[0].dlkDSL.mac "Message Generation Delay for Node 388 at Satellite" ETV
vector 42 Florasat_Individual_Sats.satellite[0].dlkDSL.mac "Repetition Position for Node 433 at Satellite" ETV
vector 43 Florasat_Individual_Sats.satellite[0].dlkDSL.mac "Repetition Generation Delay for Node 433 at Satellite" ETV
vector 44 Florasat_Individual_Sats.satellite[0].dlkDSL.mac "Message Generation Delay for Node 433 at Satellite" ETV
vector 45 Florasat_Individual_Sats.satellite[0].dlkDSL.mac "Repetition Position for Node 328 at Satellite" ETV
vector 46 Florasat_Individual_Sats.satellite[0].dlkDSL.mac "Repetition Generation Delay for Node 328 at Satellite" ETV
vector 47 Florasat_Individual_Sats.satellite[0].dlkDSL.mac "Message Generation Delay for Node 328 at Satellite" ETV
vector 48 Florasat_Individual_Sats.satellite[0].dlkDSL.mac "Repetition Position for Node 403 at Satellite" ETV
vector 49 Florasat_Individual_Sats.satellite[0].dlkDSL.mac "Repetition Generation Delay for Node 403 at Satellite" ETV
vector 50 Florasat_Individual_Sats.satellite[0].dlkDSL.mac "Message Generation Delay for Node 403 at Satellite" ETV
vector 51 Florasat_Individual_Sats.satellite[0].dlkDSL.mac "Repetition Position for Node 88 at Satellite" ETV
vector 52 Florasat_Individual_Sats.satellite[0].dlkDSL.mac "Repetition Generation Delay for Node 88 at Satellite" ETV
vector 53 Florasat_Individual_Sats.satellite[0].dlkDSL.mac "Message Generation Delay for Node 88 at Satellite" ETV
vector 54 Florasat_Individual_Sats.satellite[0].dlkDSL.mac "Repetition Position for Node 253 at Satellite" ETV
vector 55 Florasat_Individual_Sats.satellite[0].dlkDSL.mac "Repetition Generation Delay for Node 253 at Satellite" ETV
vector 56 Florasat_Individual_Sats.satellite[0].dlkDSL.mac "Message Generation Delay for Node 253 at Satellite" ETV
vector 57 Florasat_Individual_Sats.satellite[0].dlkDSL.mac "Repetition Position for Node 373 at Satellite" ETV
vector 58 Florasat_Individual_Sats.satellite[0].dlkDSL.mac "Repetition Generation Delay for Node 373 at Satellite" ETV
vector 59 Florasat_Individual_Sats.satellite[0].dlkDSL.mac "Message Generation Delay for Node 373 at Satellite" ETV
vector 60 Florasat_Individual_Sats.satellite[0].dlkDSL.mac "Repetition Position for Node 418 at Satellite" ETV
vector 61 Florasat_Individual_Sats.satellite[0].dlkDSL.mac "Repetition Generation Delay for Node 418 at Satellite" ETV
vector 62 Florasat_Individual_Sats.satellite[0].dlkDSL.mac "Message Generation Delay for Node 418 at Satellite" ETV
vector 63 Florasat_Individual_Sats.satellite[0].dlkDSL.mac "Repetition Position for Node 133 at Satellite" ETV
vector 64 Florasat_Individual_Sats.satellite[0].dlkDSL.mac "Repetition Generation Delay for Node 133 at Satellite" ETV
vector 65 Florasat_Individual_Sats.satellite[0].dlkDSL.mac "Message Generation Delay for Node 133 at Satellite" ETV
vector 66 Florasat_Individual_Sats.satellite[0].dlkDSL.mac "Repetition Position for Node 208 at Satellite" ETV
vector 67 Florasat_Individual_Sats.satellite[0].dlkDSL.mac "Repetition Generation Delay for Node 208 at Satellite" ETV
vector 68 Florasat_Individual_Sats.satellite[0].dlkDSL.mac "Message Generation Delay for Node 208 at Satellite" ETV
vector 69 Florasat_Individual_Sats.satellite[0].dlkDSL.mac "Repetition Position for Node 448 at Satellite" ETV
vector 70 Florasat_Individual_Sats.satellite[0].dlkDSL.mac "Repetition Generation Delay for Node 448 at Satellite" ETV
vector 71 Florasat_Individual_Sats.satellite[0].dlkDSL.mac "Message Generation Delay for Node 448 at Satellite" ETV
vector 72 Florasat_Individual_Sats.satellite[0].dlkDSL.mac "Repetition Position for Node 118 at Satellite" ETV
vector 73 Florasat_Individual_Sats.satellite[0].dlkDSL.mac "Repetition Generation Delay for Node 118 at Satellite" ETV
vector 74 Florasat_Individual_Sats.satellite[0].dlkDSL.mac "Message Generation Delay for Node 118 at Satellite" ETV
vector 75 Florasat_Individual_Sats.satellite[0].dlkDSL.mac "Repetition Position for Node 103 at Satellite" ETV
vector 76 Florasat_Individual_Sats.satellite[0].dlkDSL.mac "Repetition Generation Delay for Node 103 at Satellite" ETV
vector 77 Florasat_Individual_Sats.satellite[0].dlkDSL.mac "Message Generation Delay for Node 103 at Satellite" ETV
vector 78 Florasat_Individual_Sats.satellite[0].dlkDSL.mac "Repetition Position for Node 148 at Satellite" ETV
vector 79 Florasat_Individual_Sats.satellite[0].dlkDSL.mac "Repetition Generation Delay for Node 148 at Satellite" ETV
vector 80 Florasat_Individual_Sats.satellite[0].dlkDSL.mac "Message Generation Delay for Node 148 at Satellite" ETV
vector 81 Florasat_Individual_Sats.satellite[0].dlkDSL.mac "Repetition Position for Node 238 at Satellite" ETV
vector 82 Florasat_Individual_Sats.satellite[0].dlkDSL.mac "Repetition Generation Delay for Node 238 at Satellite" ETV
vector 83 Florasat_Individual_Sats.satellite[0].dlkDSL.mac "Message Generation Delay for Node 238 at Satellite" ETV
0	18632 4686 145 4532 5.4876896908 510.63331236576 176 180 180 31680 5702400
1	23318 236 145 2986 5.4876896908 234.71325158783 9 180 180 1620 291600
2	23554 6752 145 4532 5.4876896908 510.63331236576 176 4.4876896908 509.63331236576 35422.3452599 8977323.7444317
3	30306 339 145 2986 5.4876896908 234.71325158783 9 4.4876896908 233.71325158783 1332.0965688941 244378.33852187
4	30645 968 145 4151 5.4876896908 426.71544583842 26 4.4876896908 425.71544583842 3189.7640759969 657413.69546295
5	31613 32 145 145 5.4876896908 5.4876896908 1 4.4876896908 4.4876896908 4.4876896908 20.139358760913
6	31645 4578 146 4533 5.4876896908 510.63331236576 176 1 176 15576 1832776
7	36223 4578 146 4533 5.4876896908 510.63331236576 176 1 176 15576 1832776
8	40801 4578 146 4533 5.4876896908 510.63331236576 176 1 176 15576 1832776
9	45379 345 190 3533 14.09318205429 293.07461788055 13 180 180 2340 421200
10	45724 511 190 3533 14.09318205429 293.07461788055 13 13.09318205429 292.07461788055 2212.601015055 469199.24956298
11	46235 37 190 190 14.09318205429 14.09318205429 1 13.09318205429 13.09318205429 13.09318205429 171.43141630678
12	46272 414 198 3898 14.63470335345 364.18214512983 15 180 180 2700 486000
13	46686 590 198 3898 14.63470335345 364.18214512983 15 13.63470335345 363.18214512983 3055.8144851554 794743.43057212
14	47276 37 198 198 14.63470335345 14.63470335345 1 13.63470335345 13.63470335345 13.63470335345 185.90513553658
15	47313 216 278 3515 24.31986141231 289.74881682408 8 180 180 1440 259200
16	47529 307 278 3515 24.31986141231 289.74881682408 8 23.31986141231 288.74881682408 1054.692776124 198223.92276231
17	47836 37 278 278 24.31986141231 24.31986141231 1 23.31986141231 23.31986141231 23.31986141231 543.81593628934
18	47873 247 384 3381 34.14714390508 268.65187029101 9 180 180 1620 291600
19	48120 352 384 3381 34.14714390508 268.65187029101 9 33.14714390508 267.65187029101 1437.1921214946 282546.29266236
20	48472 37 384 384 34.14714390508 34.14714390508 1 33.14714390508 33.14714390508 33.14714390508 1098.7331490641
21	48509 357 392 3004 34.85845666672 236.56092345774 13 180 180 2340 421200
22	48866 508 392 3004 34.85845666672 236.56092345774 13 33.85845666672 235.56092345774 1837.3237827992 304332.53614042
23	49374 37 392 392 34.85845666672 34.85845666672 1 33.85845666672 33.85845666672 33.85845666672 1146.3950878522
24	49411 194 411 3467 37.15264416243 277.15925605096 7 180 180 1260 226800
25	49605 277 411 3467 37.15264416243 277.15925605096 7 36.15264416243 276.15925605096 1202.4404556481 250497.36176315
26	49882 37 411 411 37.15264416243 37.15264416243 1 36.15264416243 36.15264416243 36.15264416243 1307.0136799353
27	49919 165 496 2893 46.87394018577 226.67364613446 6 180 180 1080 194400
28	50084 235 496 2893 46.87394018577 226.67364613446 6 45.87394018577 225.67364613446 831.76887056894 138478.52897564
29	50319 37 496 496 46.87394018577 46.87394018577 1 45.87394018577 45.87394018577 45.87394018577 2104.4183881676
30	50356 110 688 3147 54.12166652213 248.73247095444 4 180 180 720 129600
31	50466 157 688 3147 54.12166652213 248.73247095444 4 53.12166652213 247.73247095444 701.28912066491 144654.45388274
32	50623 37 688 688 54.12166652213 54.12166652213 1 53.12166652213 53.12166652213 53.12166652213 2821.9114540884
33	50660 306 723 3970 58.05916624902 389.81698675491 11 180 180 1980 356400
34	50966 437 723 3970 58.05916624902 389.81698675491 11 57.05916624902 388.81698675491 3070.548047829 963151.76158576
35	51403 37 723 723 58.05916624902 58.05916624902 1 57.05916624902 57.05916624902 57.05916624902 3255.7484530333
36	51440 193 842 3041 71.05302982026 239.66435908916 7 180 180 1260 226800
37	51633 275 842 3041 71.05302982026 239.66435908916 7 70.05302982026 238.66435908916 1044.0465467228 177090.51237563
38	51908 37 842 842 71.05302982026 71.05302982026 1 70.05302982026 70.05302982026 70.05302982026 4907.4269869982
39	51945 274 991 3360 84.94396986317 265.5437990906 10 180 180 1800 324000
40	52219 389 991 3360 84.94396986317 265.5437990906 10 83.94396986317 264.5437990906 1770.0651662953 348057.96781722
41	52608 37 991 991 84.94396986317 84.94396986317 1 83.94396986317 83.94396986317 83.94396986317 7046.5900763888
42	52645 166 998 2908 85.24148417232 227.64814097611 6 180 180 1080 194400
43	52811 237 998 2908 85.24148417232 227.64814097611 6 84.24148417232 226.64814097611 930.64300471557 160747.67918826
44	53048 37 998 998 85.24148417232 85.24148417232 1 84.24148417232 84.24148417232 84.24148417232 7096.6276555552
45	53085 223 1153 3075 100.3673800568 242.40621258136 8 180 180 1440 259200
46	53308 317 1153 3075 100.3673800568 242.40621258136 8 99.3673800568 241.40621258136 1405.426145004 264709.27622369
47	53625 37 1153 1153 100.3673800568 100.3673800568 1 99.3673800568 99.3673800568 99.3673800568 9873.8762193525
48	53662 138 1468 2916 118.93461826084 229.82572154317 5 180 180 900 162000
49	53800 196 1468 2916 118.93461826084 229.82572154317 5 117.93461826084 228.82572154317 862.33915769324 156213.38405169
50	53996 40 1468 1468 118.93461826084 118.93461826084 1 117.93461826084 117.93461826084 117.93461826084 13908.57418433
51	54036 223 1686 3497 139.21280501987 286.91555769411 8 180 180 1440 259200
52	54259 318 1686 3497 139.21280501987 286.91555769411 8 138.21280501987 285.91555769411 1742.7604856482 397254.02753684
53	54577 40 1686 1686 139.21280501987 139.21280501987 1 138.21280501987 138.21280501987 138.21280501987 19102.779471461
54	54617 56 1699 2305 141.20364222773 185.04141026623 2 180 180 360 64800
55	54673 80 1699 2305 141.20364222773 185.04141026623 2 140.20364222773 184.04141026623 324.24505249396 53528.301986704
56	54753 40 1699 1699 141.20364222773 141.20364222773 1 140.20364222773 140.20364222773 140.20364222773 19657.061293921
57	54793 195 1737 3742 144.49156980373 342.65747474034 7 180 180 1260 226800
58	54988 278 1737 3742 144.49156980373 342.65747474034 7 143.49156980373 341.65747474034 1475.3422310101 338356.83288443
59	55266 40 1737 1737 144.49156980373 144.49156980373 1 143.49156980373 143.49156980373 143.49156980373 20589.830604739
60	55306 364 2047 4348 162.64473348384 466.07473172241 13 180 180 2340 421200
61	55670 520 2047 4348 162.64473348384 466.07473172241 13 161.64473348384 465.07473172241 4368.0919391437 1604442.5082239
62	56190 40 2047 2047 162.64473348384 162.64473348384 1 161.64473348384 161.64473348384 161.64473348384 26129.019863062
63	56230 84 2742 3445 213.44867921881 273.30460981564 3 180 180 540 97200
64	56314 120 2742 3445 213.44867921881 273.30460981564 3 212.44867921881 272.30460981564 745.13026717226 187080.41257284
65	56434 40 2742 2742 213.44867921881 213.44867921881 1 212.44867921881 212.44867921881 212.44867921881 45134.441301817
66	56474 56 2751 2945 214.29868411566 231.59371395307 2 180 180 360 64800
67	56530 80 2751 2945 214.29868411566 231.59371395307 2 213.29868411566 230.59371395307 443.89239806873 98669.789560142
68	56610 40 2751 2751 214.29868411566 214.29868411566 1 213.29868411566 213.29868411566 213.29868411566 45496.328645472
69	56650 55 2763 3349 216.46158017043 262.4027137825 2 180 180 360 64800
70	56705 78 2763 3349 216.46158017043 262.4027137825 2 215.46158017043 261.4027137825 476.86429395293 114755.07130239
71	56783 40 2763 2763 216.46158017043 216.46158017043 1 215.46158017043 215.46158017043 215.46158017043 46423.692529539
72	56823 28 3098 3098 245.08679564055 245.08679564055 1 180 180 180 32400
73	56851 40 3098 3098 245.08679564055 245.08679564055 1 244.08679564055 244.08679564055 244.08679564055 59578.363806072
74	56891 40 3098 3098 245.08679564055 245.08679564055 1 244.08679564055 244.08679564055 244.08679564055 59578.363806072
75	56931 28 3266 3266 251.94242929102 251.94242929102 1 180 180 180 32400
76	56959 40 3266 3266 251.94242929102 251.94242929102 1 250.94242929102 250.94242929102 250.94242929102 62972.102818479
77	56999 40 3266 3266 251.94242929102 251.94242929102 1 250.94242929102 250.94242929102 250.94242929102 62972.102818479
78	57039 28 3459 3459 275.96877481148 275.96877481148 1 180 180 180 32400
79	57067 40 3459 3459 275.96877481148 275.96877481148 1 274.96877481148 274.96877481148 274.96877481148 75607.827121326
80	57107 40 3459 3459 275.96877481148 275.96877481148 1 274.96877481148 274.96877481148 274.96877481148 75607.827121326
81	57147 139 4151 4532 426.71544583842 510.63331236576 5 180 180 900 162000
82	57286 198 4151 4532 426.71544583842 510.63331236576 5 425.71544583842 509.63331236576 2327.7333280026 1088053.8105327
83	57484 40 4151 4151 426.71544583842 426.71544583842 1 425.71544583842 425.71544583842 425.71544583842 181233.6408254

