version 3
run General-3-20260527-01:32:55-720927
attr configname General
attr datetime 20260527-01:32:55
attr datetimef 20260527-013255
attr experiment General
attr inifile Test_MLModel_1.ini
attr iterationvars $0=42781
attr iterationvarsd 42781
attr iterationvarsf 42781-
attr measurement $0=42781
attr network Florasat.Test_Individual.Florasat_Individual_Sats
attr processid 720927
attr repetition 3
attr replication #3
attr resultdir results
attr runnumber 3
attr seedset 3
config *.satellite[0].NoradModule.raan 185
config *.stats_altitude 670
config *.stats_raan 185
config image-path ../../images:../../../../samples/inet4.5_2/images
config network Florasat.Test_Individual.Florasat_Individual_Sats
config rng-class cMersenneTwister
config *.**.result-recording-modes -
config **.result-recording-modes -
config **.statistic-recording true
config **.scalar-recording true
config **.vector-recording true
config **.vector-record-eventnumbers true
config repeat 10
config seed-0-mt 42781
config sim-time-limit 749s
config simtime-resolution -11
config **.stats_altitude 670
config **.stats_raan 185
config *.radioMedium.backgroundNoise.power -110dBm
config *.radioMedium.mediumLimitCache.centerFrequency 868MHz
config *.radioMedium.mediumLimitCache.maxTransmissionDuration 4s
config *.radioMedium.mediumLimitCache.minInterferenceTime 0s
config **.numSatellites 1
config *.satellite[*].mobilityType "\"Sat_Mob_SatelliteMobility_Standalone\""
config *.satellite[*].noradModuleType "\"Sat_Mob_NoradA\""
config **.satellite[*].**.initFromDisplayString false
config *.satellite[*].mobility.faceForward true
config *.satellite[*].mobility.updateInterval 20s
config *.satellite[*].NoradModule.satName "\"FLoRaSat\""
config *.satellite[*].NoradModule.satIndex -1
config *.satellite[*].NoradModule.baseYear 20
config *.satellite[*].NoradModule.baseDay 1.5
config *.satellite[*].NoradModule.planes 1
config *.satellite[*].NoradModule.satPerPlane 1
config *.satellite[*].NoradModule.eccentricity 0.000001
config *.satellite[*].NoradModule.inclination 98
config *.satellite[*].NoradModule.altitude 670
config *.satellite[0].NoradModule.raan 185
config *.satellite[0].NoradModule.meanAnomaly 195
config *.satellite[*].phyDSL.radio.receiver.enableCollisionOverlap true
config *.satellite[*].phyDSL.radio.receiver.minCollisionOverlap 0s
config *.satellite[*].phyDSL.radio.antenna.typename ConstantGainAntenna
config *.satellite[*].phyDSL.radio.antenna.mobilityModule "\"^.^.^.mobility\""
config *.satellite[*].phyISL.radio.antenna.mobilityModule "\"^.^.^.mobility\""
config *.satellite[*].phyGSL.radio.antenna.mobilityModule "\"^.^.^.mobility\""
config *.satellite[*].phyDSL.radio.antenna.gain 12dB
config *.satellite[*].net.routingType "\"Null_Routing\""
config *.terminal[*].net.routingType "\"Ter_Null_Routing\""
config *.**.numGroundLinks 40
config *.satellite[*].**.interfaceTableModule "\"\""
config **.radioMedium.typename LoRaMedium
config **.radioMedium.analogModel.typename LoRaAnalogModel
config **.intraPlaneIslDisabled false
config **.interPlaneIslDisabled false
config **.numTerminals 30
config *.terminal[*].phy.radio.antenna.mobilityModule "\"^.^.^.mob\""
config *.terminal[*].dlk.mac.interfaceTableModule "\"\""
config *.terminal[*].dlk.energySourceModule "\"\""
config *.terminal[*].dlk.mac.LoRaTP "intuniform(12, 14)"
config *.terminal[*].dlk.mac.LoRaSF "intuniform(10, 12)"
config *.terminal[*].dlk.mac.useMLBox true
config *.terminal[*].dlk.mac.mlBox.modelPath "\"/home/ylnner/Documents/omnet++/omnetpp-6.3.0/projects/florasat_v4_ult_routing/simulations/Test_Individual/mlmodels/transformer_scripted.pt\""
config **.numberOfPacketsToSend 0
config **.timeToFirstPacket 1s
config **.timeToNextPacket 50s
config *.terminal[0].mob.radius 0.0
config *.terminal[0].mob.centerLatitude 54.978
config *.terminal[0].mob.centerLongitude -1.617
config *.terminal[1].mob.radius 0.0
config *.terminal[1].mob.centerLatitude 52.630
config *.terminal[1].mob.centerLongitude -1.139
config *.terminal[2].mob.radius 0.0
config *.terminal[2].mob.centerLatitude 52.612
config *.terminal[2].mob.centerLongitude -6.295
config *.terminal[3].mob.radius 0.0
config *.terminal[3].mob.centerLatitude 47.243
config *.terminal[3].mob.centerLongitude 6.024
config *.terminal[4].mob.radius 0.0
config *.terminal[4].mob.centerLatitude 43.610
config *.terminal[4].mob.centerLongitude 3.876
config *.terminal[5].mob.radius 0.0
config *.terminal[5].mob.centerLatitude 49.443
config *.terminal[5].mob.centerLongitude 1.099
config *.terminal[6].mob.radius 0.0
config *.terminal[6].mob.centerLatitude 37.992
config *.terminal[6].mob.centerLongitude -1.130
config *.terminal[7].mob.radius 0.0
config *.terminal[7].mob.centerLatitude 40.965
config *.terminal[7].mob.centerLongitude -5.664
config *.terminal[8].mob.radius 0.0
config *.terminal[8].mob.centerLatitude 40.657
config *.terminal[8].mob.centerLongitude -7.914
config *.terminal[9].mob.radius 0.0
config *.terminal[9].mob.centerLatitude 51.340
config *.terminal[9].mob.centerLongitude 12.373
config *.terminal[10].mob.radius 0.0
config *.terminal[10].mob.centerLatitude 51.455
config *.terminal[10].mob.centerLongitude 7.011
config *.terminal[11].mob.radius 0.0
config *.terminal[11].mob.centerLatitude 49.452
config *.terminal[11].mob.centerLongitude 11.076
config *.terminal[12].mob.radius 0.0
config *.terminal[12].mob.centerLatitude 43.769
config *.terminal[12].mob.centerLongitude 11.255
config *.terminal[13].mob.radius 0.0
config *.terminal[13].mob.centerLatitude 41.117
config *.terminal[13].mob.centerLongitude 16.871
config *.terminal[14].mob.radius 0.0
config *.terminal[14].mob.centerLatitude 52.132
config *.terminal[14].mob.centerLongitude 5.291
config *.terminal[15].mob.radius 0.0
config *.terminal[15].mob.centerLatitude 50.411
config *.terminal[15].mob.centerLongitude 4.444
config *.terminal[16].mob.radius 0.0
config *.terminal[16].mob.centerLatitude 47.559
config *.terminal[16].mob.centerLongitude 7.588
config *.terminal[17].mob.radius 0.0
config *.terminal[17].mob.centerLatitude 55.403
config *.terminal[17].mob.centerLongitude 10.402
config *.terminal[18].mob.radius 0.0
config *.terminal[18].mob.centerLatitude 59.858
config *.terminal[18].mob.centerLongitude 17.638
config *.terminal[19].mob.radius 0.0
config *.terminal[19].mob.centerLatitude 60.451
config *.terminal[19].mob.centerLongitude 22.266
config *.terminal[20].mob.radius 0.0
config *.terminal[20].mob.centerLatitude 56.325
config *.terminal[20].mob.centerLongitude 22.349
config *.terminal[21].mob.radius 0.0
config *.terminal[21].mob.centerLatitude 49.883
config *.terminal[21].mob.centerLongitude 18.568
config *.terminal[22].mob.radius 0.0
config *.terminal[22].mob.centerLatitude 47.531
config *.terminal[22].mob.centerLongitude 21.627
config *.terminal[23].mob.radius 0.0
config *.terminal[23].mob.centerLatitude 44.179
config *.terminal[23].mob.centerLongitude 28.649
config *.terminal[24].mob.radius 0.0
config *.terminal[24].mob.centerLatitude 45.327
config *.terminal[24].mob.centerLongitude 14.442
config *.terminal[25].mob.radius 0.0
config *.terminal[25].mob.centerLatitude 40.694
config *.terminal[25].mob.centerLongitude 30.400
config *.terminal[26].mob.radius 0.0
config *.terminal[26].mob.centerLatitude 37.066
config *.terminal[26].mob.centerLongitude 37.383
config *.terminal[27].mob.radius 0.0
config *.terminal[27].mob.centerLatitude 64.836
config *.terminal[27].mob.centerLongitude -23.708
config *.terminal[28].mob.radius 0.0
config *.terminal[28].mob.centerLatitude 28.099
config *.terminal[28].mob.centerLongitude -17.113
config *.terminal[29].mob.radius 0.0
config *.terminal[29].mob.centerLatitude 34.921
config *.terminal[29].mob.centerLongitude 33.623
config **.numStations 3
config **.numStations 3
config *.station[0].mobility.latitude 55.752
config *.station[0].mobility.longitude 37.616
config *.station[0].cityName "\"Moscow\""
config *.station[0].groundStationId 7
config *.station[0].routerAddr "\"10.0.0.29\""
config *.station[0].serving "\"10.0.0.29\""
config *.station[1].mobility.latitude 28.652
config *.station[1].mobility.longitude 77.231
config *.station[1].cityName "\"Delhi\""
config *.station[1].groundStationId 11
config *.station[1].routerAddr "\"10.0.0.45\""
config *.station[1].serving "\"10.0.0.45\""
config *.station[2].mobility.latitude 25.35
config *.station[2].mobility.longitude 51.24
config *.station[2].cityName "\"Katar\""
config *.station[2].groundStationId 19
config *.station[2].routerAddr "\"10.0.0.77\""
config *.station[2].serving "\"10.0.0.77\""
config *.visualizer.canvasVisualizer.mediumVisualizer.typename ""
config *.visualizer.*.radioVisualizer.displayAntennaLobes true
config *.visualizer.*.dataLinkVisualizer.displayLinks true
config *.visualizer.*.mobilityVisualizer.displayMovementTrails true
config *.visualizer.*.mobilityVisualizer.movementTrailLineWidth 1
config *.visualizer.*.mobilityVisualizer.trailLength 3000
config **.ttxStart_max 30s
config **.ttxIdle_min 10s
config **.ttxIdle_max 25s
config **.Ntw 2
config **.Ntx 45
config **.ttwDuration 550s

vector 0 Florasat_Individual_Sats.satellite[0].dlkDSL.mac "Satellite Position when Repetition Received" ETV
vector 1 Florasat_Individual_Sats.satellite[0].dlkDSL.mac "Repetition Position for Node 358 at Satellite" ETV
vector 2 Florasat_Individual_Sats.satellite[0].dlkDSL.mac "All Nodes Repetition Generation Delay at Satellite" ETV
vector 3 Florasat_Individual_Sats.satellite[0].dlkDSL.mac "Repetition Generation Delay for Node 358 at Satellite" ETV
vector 4 Florasat_Individual_Sats.satellite[0].dlkDSL.mac "All Nodes Message Generation Delay at Satellite" ETV
vector 5 Florasat_Individual_Sats.satellite[0].dlkDSL.mac "Message Generation Delay for Node 358 at Satellite" ETV
vector 6 Florasat_Individual_Sats.satellite[0].net.packetHandler "packets received" ETV
vector 7 Florasat_Individual_Sats.satellite[0].net.packetHandler "dropped unroutable" ETV
vector 8 Florasat_Individual_Sats.satellite[0].net.packetHandler "packets dropped" ETV
vector 9 Florasat_Individual_Sats.satellite[0].dlkDSL.mac "Repetition Position for Node 313 at Satellite" ETV
vector 10 Florasat_Individual_Sats.satellite[0].dlkDSL.mac "Repetition Generation Delay for Node 313 at Satellite" ETV
vector 11 Florasat_Individual_Sats.satellite[0].dlkDSL.mac "Message Generation Delay for Node 313 at Satellite" ETV
vector 12 Florasat_Individual_Sats.satellite[0].dlkDSL.mac "Repetition Position for Node 193 at Satellite" ETV
vector 13 Florasat_Individual_Sats.satellite[0].dlkDSL.mac "Repetition Generation Delay for Node 193 at Satellite" ETV
vector 14 Florasat_Individual_Sats.satellite[0].dlkDSL.mac "Message Generation Delay for Node 193 at Satellite" ETV
vector 15 Florasat_Individual_Sats.satellite[0].dlkDSL.mac "Repetition Position for Node 463 at Satellite" ETV
vector 16 Florasat_Individual_Sats.satellite[0].dlkDSL.mac "Repetition Generation Delay for Node 463 at Satellite" ETV
vector 17 Florasat_Individual_Sats.satellite[0].dlkDSL.mac "Message Generation Delay for Node 463 at Satellite" ETV
vector 18 Florasat_Individual_Sats.satellite[0].dlkDSL.mac "Repetition Position for Node 58 at Satellite" ETV
vector 19 Florasat_Individual_Sats.satellite[0].dlkDSL.mac "Repetition Generation Delay for Node 58 at Satellite" ETV
vector 20 Florasat_Individual_Sats.satellite[0].dlkDSL.mac "Message Generation Delay for Node 58 at Satellite" ETV
vector 21 Florasat_Individual_Sats.satellite[0].dlkDSL.mac "Repetition Position for Node 343 at Satellite" ETV
vector 22 Florasat_Individual_Sats.satellite[0].dlkDSL.mac "Repetition Generation Delay for Node 343 at Satellite" ETV
vector 23 Florasat_Individual_Sats.satellite[0].dlkDSL.mac "Message Generation Delay for Node 343 at Satellite" ETV
vector 24 Florasat_Individual_Sats.satellite[0].dlkDSL.mac "Repetition Position for Node 283 at Satellite" ETV
vector 25 Florasat_Individual_Sats.satellite[0].dlkDSL.mac "Repetition Generation Delay for Node 283 at Satellite" ETV
vector 26 Florasat_Individual_Sats.satellite[0].dlkDSL.mac "Message Generation Delay for Node 283 at Satellite" ETV
vector 27 Florasat_Individual_Sats.satellite[0].dlkDSL.mac "Repetition Position for Node 73 at Satellite" ETV
vector 28 Florasat_Individual_Sats.satellite[0].dlkDSL.mac "Repetition Generation Delay for Node 73 at Satellite" ETV
vector 29 Florasat_Individual_Sats.satellite[0].dlkDSL.mac "Message Generation Delay for Node 73 at Satellite" ETV
vector 30 Florasat_Individual_Sats.satellite[0].dlkDSL.mac "Repetition Position for Node 298 at Satellite" ETV
vector 31 Florasat_Individual_Sats.satellite[0].dlkDSL.mac "Repetition Generation Delay for Node 298 at Satellite" ETV
vector 32 Florasat_Individual_Sats.satellite[0].dlkDSL.mac "Message Generation Delay for Node 298 at Satellite" ETV
vector 33 Florasat_Individual_Sats.satellite[0].dlkDSL.mac "Repetition Position for Node 223 at Satellite" ETV
vector 34 Florasat_Individual_Sats.satellite[0].dlkDSL.mac "Repetition Generation Delay for Node 223 at Satellite" ETV
vector 35 Florasat_Individual_Sats.satellite[0].dlkDSL.mac "Message Generation Delay for Node 223 at Satellite" ETV
vector 36 Florasat_Individual_Sats.satellite[0].dlkDSL.mac "Repetition Position for Node 268 at Satellite" ETV
vector 37 Florasat_Individual_Sats.satellite[0].dlkDSL.mac "Repetition Generation Delay for Node 268 at Satellite" ETV
vector 38 Florasat_Individual_Sats.satellite[0].dlkDSL.mac "Message Generation Delay for Node 268 at Satellite" ETV
vector 39 Florasat_Individual_Sats.satellite[0].dlkDSL.mac "Repetition Position for Node 388 at Satellite" ETV
vector 40 Florasat_Individual_Sats.satellite[0].dlkDSL.mac "Repetition Generation Delay for Node 388 at Satellite" ETV
vector 41 Florasat_Individual_Sats.satellite[0].dlkDSL.mac "Message Generation Delay for Node 388 at Satellite" ETV
vector 42 Florasat_Individual_Sats.satellite[0].dlkDSL.mac "Repetition Position for Node 433 at Satellite" ETV
vector 43 Florasat_Individual_Sats.satellite[0].dlkDSL.mac "Repetition Generation Delay for Node 433 at Satellite" ETV
vector 44 Florasat_Individual_Sats.satellite[0].dlkDSL.mac "Message Generation Delay for Node 433 at Satellite" ETV
vector 45 Florasat_Individual_Sats.satellite[0].dlkDSL.mac "Repetition Position for Node 328 at Satellite" ETV
vector 46 Florasat_Individual_Sats.satellite[0].dlkDSL.mac "Repetition Generation Delay for Node 328 at Satellite" ETV
vector 47 Florasat_Individual_Sats.satellite[0].dlkDSL.mac "Message Generation Delay for Node 328 at Satellite" ETV
vector 48 Florasat_Individual_Sats.satellite[0].dlkDSL.mac "Repetition Position for Node 403 at Satellite" ETV
vector 49 Florasat_Individual_Sats.satellite[0].dlkDSL.mac "Repetition Generation Delay for Node 403 at Satellite" ETV
vector 50 Florasat_Individual_Sats.satellite[0].dlkDSL.mac "Message Generation Delay for Node 403 at Satellite" ETV
vector 51 Florasat_Individual_Sats.satellite[0].dlkDSL.mac "Repetition Position for Node 88 at Satellite" ETV
vector 52 Florasat_Individual_Sats.satellite[0].dlkDSL.mac "Repetition Generation Delay for Node 88 at Satellite" ETV
vector 53 Florasat_Individual_Sats.satellite[0].dlkDSL.mac "Message Generation Delay for Node 88 at Satellite" ETV
vector 54 Florasat_Individual_Sats.satellite[0].dlkDSL.mac "Repetition Position for Node 253 at Satellite" ETV
vector 55 Florasat_Individual_Sats.satellite[0].dlkDSL.mac "Repetition Generation Delay for Node 253 at Satellite" ETV
vector 56 Florasat_Individual_Sats.satellite[0].dlkDSL.mac "Message Generation Delay for Node 253 at Satellite" ETV
vector 57 Florasat_Individual_Sats.satellite[0].dlkDSL.mac "Repetition Position for Node 373 at Satellite" ETV
vector 58 Florasat_Individual_Sats.satellite[0].dlkDSL.mac "Repetition Generation Delay for Node 373 at Satellite" ETV
vector 59 Florasat_Individual_Sats.satellite[0].dlkDSL.mac "Message Generation Delay for Node 373 at Satellite" ETV
vector 60 Florasat_Individual_Sats.satellite[0].dlkDSL.mac "Repetition Position for Node 418 at Satellite" ETV
vector 61 Florasat_Individual_Sats.satellite[0].dlkDSL.mac "Repetition Generation Delay for Node 418 at Satellite" ETV
vector 62 Florasat_Individual_Sats.satellite[0].dlkDSL.mac "Message Generation Delay for Node 418 at Satellite" ETV
vector 63 Florasat_Individual_Sats.satellite[0].dlkDSL.mac "Repetition Position for Node 133 at Satellite" ETV
vector 64 Florasat_Individual_Sats.satellite[0].dlkDSL.mac "Repetition Generation Delay for Node 133 at Satellite" ETV
vector 65 Florasat_Individual_Sats.satellite[0].dlkDSL.mac "Message Generation Delay for Node 133 at Satellite" ETV
vector 66 Florasat_Individual_Sats.satellite[0].dlkDSL.mac "Repetition Position for Node 208 at Satellite" ETV
vector 67 Florasat_Individual_Sats.satellite[0].dlkDSL.mac "Repetition Generation Delay for Node 208 at Satellite" ETV
vector 68 Florasat_Individual_Sats.satellite[0].dlkDSL.mac "Message Generation Delay for Node 208 at Satellite" ETV
vector 69 Florasat_Individual_Sats.satellite[0].dlkDSL.mac "Repetition Position for Node 448 at Satellite" ETV
vector 70 Florasat_Individual_Sats.satellite[0].dlkDSL.mac "Repetition Generation Delay for Node 448 at Satellite" ETV
vector 71 Florasat_Individual_Sats.satellite[0].dlkDSL.mac "Message Generation Delay for Node 448 at Satellite" ETV
vector 72 Florasat_Individual_Sats.satellite[0].dlkDSL.mac "Repetition Position for Node 118 at Satellite" ETV
vector 73 Florasat_Individual_Sats.satellite[0].dlkDSL.mac "Repetition Generation Delay for Node 118 at Satellite" ETV
vector 74 Florasat_Individual_Sats.satellite[0].dlkDSL.mac "Message Generation Delay for Node 118 at Satellite" ETV
vector 75 Florasat_Individual_Sats.satellite[0].dlkDSL.mac "Repetition Position for Node 103 at Satellite" ETV
vector 76 Florasat_Individual_Sats.satellite[0].dlkDSL.mac "Repetition Generation Delay for Node 103 at Satellite" ETV
vector 77 Florasat_Individual_Sats.satellite[0].dlkDSL.mac "Message Generation Delay for Node 103 at Satellite" ETV
vector 78 Florasat_Individual_Sats.satellite[0].dlkDSL.mac "Repetition Position for Node 148 at Satellite" ETV
vector 79 Florasat_Individual_Sats.satellite[0].dlkDSL.mac "Repetition Generation Delay for Node 148 at Satellite" ETV
vector 80 Florasat_Individual_Sats.satellite[0].dlkDSL.mac "Message Generation Delay for Node 148 at Satellite" ETV
vector 81 Florasat_Individual_Sats.satellite[0].dlkDSL.mac "Repetition Position for Node 238 at Satellite" ETV
vector 82 Florasat_Individual_Sats.satellite[0].dlkDSL.mac "Repetition Generation Delay for Node 238 at Satellite" ETV
vector 83 Florasat_Individual_Sats.satellite[0].dlkDSL.mac "Message Generation Delay for Node 238 at Satellite" ETV
0	145	5.4876896908	180
0	190	14.09318205429	180
0	198	14.63470335345	180
0	278	24.31986141231	180
0	384	34.14714390508	180
0	392	34.85845666672	180
0	411	37.15264416243	180
0	436	40.20313862458	180
0	496	46.87394018577	180
0	644	51.54424776783	180
0	672	53.32278010764	180
0	688	54.12166652213	180
0	723	58.05916624902	180
0	791	66.35916625326	180
0	804	68.23440843089	180
0	842	71.05302982026	180
0	853	72.25000355502	180
0	887	76.16102639915	180
0	931	80.42425916291	180
0	991	84.94396986317	180
0	998	85.24148417232	180
0	1014	86.81971658597	180
0	1040	88.54504631776	180
0	1058	89.52224011293	180
0	1107	94.01407718951	180
0	1111	94.1543141797	180
0	1124	95.39892322959	180
0	1153	100.3673800568	180
0	1253	101.14874178769	180
0	1272	102.16989249284	180
0	1360	109.40829726112	180
0	1382	110.72565081509	180
0	1401	112.31754971379	180
0	1415	113.81779267396	180
0	1436	115.05080889787	180
0	1443	115.67529384726	180
0	1448	115.98865347276	180
0	1468	118.93461826084	180
0	1481	120.39053315173	180
0	1506	124.12506169467	180
0	1531	125.90895235598	180
0	1547	127.21946058273	180
0	1562	129.07089381655	180
0	1610	132.57256880977	180
0	1620	133.02148563315	180
0	1646	135.45989597908	180
0	1655	136.36881986612	180
0	1664	137.27615170473	180
0	1675	138.12792848274	180
0	1686	139.21280501987	180
0	1699	141.20364222773	180
0	1727	143.78436750376	180
0	1737	144.49156980373	180
0	1747	144.79074405333	180
0	1806	148.8197612494	180
0	1812	148.97354339695	180
0	1827	150.55090191484	180
0	1831	150.69500168534	180
0	1939	152.53739605302	180
0	1952	155.00105409642	180
0	1970	157.0237378165	180
0	1987	158.73928426293	180
0	2020	160.75260799205	180
0	2047	162.64473348384	180
0	2058	163.07272423701	180
0	2066	163.47139157232	180
0	2108	166.839716697	180
0	2121	168.56271131024	180
0	2167	172.7113375225	180
0	2171	172.84029581579	180
0	2192	175.83694687922	180
0	2211	176.84569204453	180
0	2225	178.68867745566	180
0	2248	180.48799382502	180
0	2274	182.86230123583	180
0	2287	183.64232979542	180
0	2299	184.64047865934	180
0	2305	185.04141026623	180
0	2340	187.65400206431	180
0	2361	189.23672820153	180
0	2370	190.35736153347	180
0	2374	190.56458347472	180
0	2382	191.47905163344	180
0	2400	193.75183484498	180
0	2411	194.45710394009	180
0	2418	194.55619796405	180
0	2426	196.08830361257	180
0	2584	201.18819927739	180
0	2593	202.04075762297	180
0	2611	202.92979201412	180
0	2617	203.1918593374	180
0	2631	204.20499517341	180
0	2635	204.46434790482	180
0	2647	205.37206064736	180
0	2655	206.8749093367	180
0	2667	207.95421688179	180
0	2676	208.3888561243	180
0	2687	209.06107759279	180
0	2705	209.9614745087	180
0	2720	211.37943728457	180
0	2735	213.19825498681	180
0	2742	213.44867921881	180
0	2751	214.29868411566	180
0	2763	216.46158017043	180
0	2778	217.04789951204	180
0	2786	217.47254127464	180
0	2790	217.63286103952	180
0	2801	219.21497242235	180
0	2850	222.65402405117	180
0	2862	223.20377284758	180
0	2870	223.48451764382	180
0	2881	224.6605514548	180
0	2893	226.67364613446	180
0	2897	226.81293278461	180
0	2908	227.64814097611	180
0	2916	229.82572154317	180
0	2937	231.27306464589	180
0	2945	231.59371395307	180
0	2969	233.15685086993	180
0	2986	234.71325158783	180
0	3004	236.56092345774	180
0	3012	237.39228382118	180
0	3041	239.66435908916	180
0	3063	241.13128001561	180
0	3068	241.88969830227	180
0	3075	242.40621258136	180
0	3093	244.47735223563	180
0	3098	245.08679564055	180
0	3111	246.29182612633	180
0	3119	246.91992620451	180
0	3143	248.14743978547	180
0	3147	248.73247095444	180
0	3161	250.61702230706	180
0	3266	251.94242929102	180
0	3277	253.25393881993	180
0	3299	255.83646202636	180
0	3317	258.24124974191	180
0	3334	261.19194471504	180
0	3339	261.37697813781	180
0	3349	262.4027137825	180
0	3360	265.5437990906	180
0	3369	266.73876566924	180
0	3381	268.65187029101	180
0	3401	271.00555259212	180
0	3434	272.64968750176	180
0	3445	273.30460981564	180
0	3459	275.96877481148	180
0	3467	277.15925605096	180
0	3482	283.8158069399	180
0	3497	286.91555769411	180
0	3515	289.74881682408	180
0	3526	292.34782682493	180
0	3533	293.07461788055	180
0	3654	307.32260422193	180
0	3680	321.34906274327	180
0	3708	330.38948409137	180
0	3719	333.62663641283	180
0	3742	342.65747474034	180
0	3751	344.63786791488	180
0	3862	351.56975847896	180
0	3894	363.75087769064	180
0	3898	364.18214512983	180
0	3930	379.78841026607	180
0	3955	385.57030361488	180
0	3970	389.81698675491	180
0	3993	400.08919826236	180
0	4111	413.16821491339	180
0	4140	424.97004956699	180
0	4151	426.71544583842	180
0	4184	439.41436069545	180
0	4201	444.81323681983	180
0	4314	455.26082823861	180
0	4339	464.55998274709	180
0	4348	466.07473172241	180
0	4391	486.0113502315	180
0	4532	510.63331236576	180
1	145	5.4876896908	180
1	791	66.35916625326	180
1	1360	109.40829726112	180
1	1747	144.79074405333	180
1	1970	157.0237378165	180
1	2411	194.45710394009	180
1	2647	205.37206064736	180
1	2870	223.48451764382	180
1	2986	234.71325158783	180
2	145	5.4876896908	4.4876896908
2	190	14.09318205429	13.09318205429
2	198	14.63470335345	13.63470335345
2	278	24.31986141231	23.31986141231
2	384	34.14714390508	33.14714390508
2	392	34.85845666672	33.85845666672
2	411	37.15264416243	36.15264416243
2	436	40.20313862458	39.20313862458
2	496	46.87394018577	45.87394018577
2	644	51.54424776783	50.54424776783
2	672	53.32278010764	52.32278010764
2	688	54.12166652213	53.12166652213
2	723	58.05916624902	57.05916624902
2	791	66.35916625326	65.35916625326
2	804	68.23440843089	67.23440843089
2	842	71.05302982026	70.05302982026
2	853	72.25000355502	71.25000355502
2	887	76.16102639915	75.16102639915
2	931	80.42425916291	79.42425916291
2	991	84.94396986317	83.94396986317
2	998	85.24148417232	84.24148417232
2	1014	86.81971658597	85.81971658597
2	1040	88.54504631776	87.54504631776
2	1058	89.52224011293	88.52224011293
2	1107	94.01407718951	93.01407718951
2	1111	94.1543141797	93.1543141797
2	1124	95.39892322959	94.39892322959
2	1153	100.3673800568	99.3673800568
2	1253	101.14874178769	100.14874178769
2	1272	102.16989249284	101.16989249284
2	1360	109.40829726112	108.40829726112
2	1382	110.72565081509	109.72565081509
2	1401	112.31754971379	111.31754971379
2	1415	113.81779267396	112.81779267396
2	1436	115.05080889787	114.05080889787
2	1443	115.67529384726	114.67529384726
2	1448	115.98865347276	114.98865347276
2	1468	118.93461826084	117.93461826084
2	1481	120.39053315173	119.39053315173
2	1506	124.12506169467	123.12506169467
2	1531	125.90895235598	124.90895235598
2	1547	127.21946058273	126.21946058273
2	1562	129.07089381655	128.07089381655
2	1610	132.57256880977	131.57256880977
2	1620	133.02148563315	132.02148563315
2	1646	135.45989597908	134.45989597908
2	1655	136.36881986612	135.36881986612
2	1664	137.27615170473	136.27615170473
2	1675	138.12792848274	137.12792848274
2	1686	139.21280501987	138.21280501987
2	1699	141.20364222773	140.20364222773
2	1727	143.78436750376	142.78436750376
2	1737	144.49156980373	143.49156980373
2	1747	144.79074405333	143.79074405333
2	1806	148.8197612494	147.8197612494
2	1812	148.97354339695	147.97354339695
2	1827	150.55090191484	149.55090191484
2	1831	150.69500168534	149.69500168534
2	1939	152.53739605302	151.53739605302
2	1952	155.00105409642	154.00105409642
2	1970	157.0237378165	156.0237378165
2	1987	158.73928426293	157.73928426293
2	2020	160.75260799205	159.75260799205
2	2047	162.64473348384	161.64473348384
2	2058	163.07272423701	162.07272423701
2	2066	163.47139157232	162.47139157232
2	2108	166.839716697	165.839716697
2	2121	168.56271131024	167.56271131024
2	2167	172.7113375225	171.7113375225
2	2171	172.84029581579	171.84029581579
2	2192	175.83694687922	174.83694687922
2	2211	176.84569204453	175.84569204453
2	2225	178.68867745566	177.68867745566
2	2248	180.48799382502	179.48799382502
2	2274	182.86230123583	181.86230123583
2	2287	183.64232979542	182.64232979542
2	2299	184.64047865934	183.64047865934
2	2305	185.04141026623	184.04141026623
2	2340	187.65400206431	186.65400206431
2	2361	189.23672820153	188.23672820153
2	2370	190.35736153347	189.35736153347
2	2374	190.56458347472	189.56458347472
2	2382	191.47905163344	190.47905163344
2	2400	193.75183484498	192.75183484498
2	2411	194.45710394009	193.45710394009
2	2418	194.55619796405	193.55619796405
2	2426	196.08830361257	195.08830361257
2	2584	201.18819927739	200.18819927739
2	2593	202.04075762297	201.04075762297
2	2611	202.92979201412	201.92979201412
2	2617	203.1918593374	202.1918593374
2	2631	204.20499517341	203.20499517341
2	2635	204.46434790482	203.46434790482
2	2647	205.37206064736	204.37206064736
2	2655	206.8749093367	205.8749093367
2	2667	207.95421688179	206.95421688179
2	2676	208.3888561243	207.3888561243
2	2687	209.06107759279	208.06107759279
2	2705	209.9614745087	208.9614745087
2	2720	211.37943728457	210.37943728457
2	2735	213.19825498681	212.19825498681
2	2742	213.44867921881	212.44867921881
2	2751	214.29868411566	213.29868411566
2	2763	216.46158017043	215.46158017043
2	2778	217.04789951204	216.04789951204
2	2786	217.47254127464	216.47254127464
2	2790	217.63286103952	216.63286103952
2	2801	219.21497242235	218.21497242235
2	2850	222.65402405117	221.65402405117
2	2862	223.20377284758	222.20377284758
2	2870	223.48451764382	222.48451764382
2	2881	224.6605514548	223.6605514548
2	2893	226.67364613446	225.67364613446
2	2897	226.81293278461	225.81293278461
2	2908	227.64814097611	226.64814097611
2	2916	229.82572154317	228.82572154317
2	2937	231.27306464589	230.27306464589
2	2945	231.59371395307	230.59371395307
2	2969	233.15685086993	232.15685086993
2	2986	234.71325158783	233.71325158783
2	3004	236.56092345774	235.56092345774
2	3012	237.39228382118	236.39228382118
2	3041	239.66435908916	238.66435908916
2	3063	241.13128001561	240.13128001561
2	3068	241.88969830227	240.88969830227
2	3075	242.40621258136	241.40621258136
2	3093	244.47735223563	243.47735223563
2	3098	245.08679564055	244.08679564055
2	3111	246.29182612633	245.29182612633
2	3119	246.91992620451	245.91992620451
2	3143	248.14743978547	247.14743978547
2	3147	248.73247095444	247.73247095444
2	3161	250.61702230706	249.61702230706
2	3266	251.94242929102	250.94242929102
2	3277	253.25393881993	252.25393881993
2	3299	255.83646202636	254.83646202636
2	3317	258.24124974191	257.24124974191
2	3334	261.19194471504	260.19194471504
2	3339	261.37697813781	260.37697813781
2	3349	262.4027137825	261.4027137825
2	3360	265.5437990906	264.5437990906
2	3369	266.73876566924	265.73876566924
2	3381	268.65187029101	267.65187029101
2	3401	271.00555259212	270.00555259212
2	3434	272.64968750176	271.64968750176
2	3445	273.30460981564	272.30460981564
2	3459	275.96877481148	274.96877481148
2	3467	277.15925605096	276.15925605096
2	3482	283.8158069399	282.8158069399
2	3497	286.91555769411	285.91555769411
2	3515	289.74881682408	288.74881682408
2	3526	292.34782682493	291.34782682493
2	3533	293.07461788055	292.07461788055
2	3654	307.32260422193	306.32260422193
2	3680	321.34906274327	320.34906274327
2	3708	330.38948409137	329.38948409137
2	3719	333.62663641283	332.62663641283
2	3742	342.65747474034	341.65747474034
2	3751	344.63786791488	343.63786791488
2	3862	351.56975847896	350.56975847896
2	3894	363.75087769064	362.75087769064
2	3898	364.18214512983	363.18214512983
2	3930	379.78841026607	378.78841026607
2	3955	385.57030361488	384.57030361488
2	3970	389.81698675491	388.81698675491
2	3993	400.08919826236	399.08919826236
2	4111	413.16821491339	412.16821491339
2	4140	424.97004956699	423.97004956699
2	4151	426.71544583842	425.71544583842
2	4184	439.41436069545	438.41436069545
2	4201	444.81323681983	443.81323681983
2	4314	455.26082823861	454.26082823861
2	4339	464.55998274709	463.55998274709
2	4348	466.07473172241	465.07473172241
2	4391	486.0113502315	485.0113502315
2	4532	510.63331236576	509.63331236576
3	145	5.4876896908	4.4876896908
3	791	66.35916625326	65.35916625326
3	1360	109.40829726112	108.40829726112
3	1747	144.79074405333	143.79074405333
3	1970	157.0237378165	156.0237378165
3	2411	194.45710394009	193.45710394009
3	2647	205.37206064736	204.37206064736
3	2870	223.48451764382	222.48451764382
3	2986	234.71325158783	233.71325158783
4	145	5.4876896908	4.4876896908
4	190	14.09318205429	13.09318205429
4	198	14.63470335345	13.63470335345
4	278	24.31986141231	23.31986141231
4	384	34.14714390508	33.14714390508
4	392	34.85845666672	33.85845666672
4	411	37.15264416243	36.15264416243
4	496	46.87394018577	45.87394018577
4	688	54.12166652213	53.12166652213
4	723	58.05916624902	57.05916624902
4	842	71.05302982026	70.05302982026
4	991	84.94396986317	83.94396986317
4	998	85.24148417232	84.24148417232
4	1153	100.3673800568	99.3673800568
4	1468	118.93461826084	117.93461826084
4	1686	139.21280501987	138.21280501987
4	1699	141.20364222773	140.20364222773
4	1737	144.49156980373	143.49156980373
4	2047	162.64473348384	161.64473348384
4	2742	213.44867921881	212.44867921881
4	2751	214.29868411566	213.29868411566
4	2763	216.46158017043	215.46158017043
4	3098	245.08679564055	244.08679564055
4	3266	251.94242929102	250.94242929102
4	3459	275.96877481148	274.96877481148
4	4151	426.71544583842	425.71544583842
5	145	5.4876896908	4.4876896908
6	146	5.4876896908	1
6	191	14.09318205429	2
6	199	14.63470335345	3
6	279	24.31986141231	4
6	385	34.14714390508	5
6	393	34.85845666672	6
6	412	37.15264416243	7
6	437	40.20313862458	8
6	497	46.87394018577	9
6	645	51.54424776783	10
6	673	53.32278010764	11
6	689	54.12166652213	12
6	724	58.05916624902	13
6	792	66.35916625326	14
6	805	68.23440843089	15
6	843	71.05302982026	16
6	854	72.25000355502	17
6	888	76.16102639915	18
6	932	80.42425916291	19
6	992	84.94396986317	20
6	999	85.24148417232	21
6	1015	86.81971658597	22
6	1041	88.54504631776	23
6	1059	89.52224011293	24
6	1108	94.01407718951	25
6	1112	94.1543141797	26
6	1125	95.39892322959	27
6	1154	100.3673800568	28
6	1254	101.14874178769	29
6	1273	102.16989249284	30
6	1361	109.40829726112	31
6	1383	110.72565081509	32
6	1402	112.31754971379	33
6	1416	113.81779267396	34
6	1437	115.05080889787	35
6	1444	115.67529384726	36
6	1449	115.98865347276	37
6	1469	118.93461826084	38
6	1482	120.39053315173	39
6	1507	124.12506169467	40
6	1532	125.90895235598	41
6	1548	127.21946058273	42
6	1563	129.07089381655	43
6	1611	132.57256880977	44
6	1621	133.02148563315	45
6	1647	135.45989597908	46
6	1656	136.36881986612	47
6	1665	137.27615170473	48
6	1676	138.12792848274	49
6	1687	139.21280501987	50
6	1700	141.20364222773	51
6	1728	143.78436750376	52
6	1738	144.49156980373	53
6	1748	144.79074405333	54
6	1807	148.8197612494	55
6	1813	148.97354339695	56
6	1828	150.55090191484	57
6	1832	150.69500168534	58
6	1940	152.53739605302	59
6	1953	155.00105409642	60
6	1971	157.0237378165	61
6	1988	158.73928426293	62
6	2021	160.75260799205	63
6	2048	162.64473348384	64
6	2059	163.07272423701	65
6	2067	163.47139157232	66
6	2109	166.839716697	67
6	2122	168.56271131024	68
6	2168	172.7113375225	69
6	2172	172.84029581579	70
6	2193	175.83694687922	71
6	2212	176.84569204453	72
6	2226	178.68867745566	73
6	2249	180.48799382502	74
6	2275	182.86230123583	75
6	2288	183.64232979542	76
6	2300	184.64047865934	77
6	2306	185.04141026623	78
6	2341	187.65400206431	79
6	2362	189.23672820153	80
6	2371	190.35736153347	81
6	2375	190.56458347472	82
6	2383	191.47905163344	83
6	2401	193.75183484498	84
6	2412	194.45710394009	85
6	2419	194.55619796405	86
6	2427	196.08830361257	87
6	2585	201.18819927739	88
6	2594	202.04075762297	89
6	2612	202.92979201412	90
6	2618	203.1918593374	91
6	2632	204.20499517341	92
6	2636	204.46434790482	93
6	2648	205.37206064736	94
6	2656	206.8749093367	95
6	2668	207.95421688179	96
6	2677	208.3888561243	97
6	2688	209.06107759279	98
6	2706	209.9614745087	99
6	2721	211.37943728457	100
6	2736	213.19825498681	101
6	2743	213.44867921881	102
6	2752	214.29868411566	103
6	2764	216.46158017043	104
6	2779	217.04789951204	105
6	2787	217.47254127464	106
6	2791	217.63286103952	107
6	2802	219.21497242235	108
6	2851	222.65402405117	109
6	2863	223.20377284758	110
6	2871	223.48451764382	111
6	2882	224.6605514548	112
6	2894	226.67364613446	113
6	2898	226.81293278461	114
6	2909	227.64814097611	115
6	2917	229.82572154317	116
6	2938	231.27306464589	117
6	2946	231.59371395307	118
6	2970	233.15685086993	119
6	2987	234.71325158783	120
6	3005	236.56092345774	121
6	3013	237.39228382118	122
6	3042	239.66435908916	123
6	3064	241.13128001561	124
6	3069	241.88969830227	125
6	3076	242.40621258136	126
6	3094	244.47735223563	127
6	3099	245.08679564055	128
6	3112	246.29182612633	129
6	3120	246.91992620451	130
6	3144	248.14743978547	131
6	3148	248.73247095444	132
6	3162	250.61702230706	133
6	3267	251.94242929102	134
6	3278	253.25393881993	135
6	3300	255.83646202636	136
6	3318	258.24124974191	137
6	3335	261.19194471504	138
6	3340	261.37697813781	139
6	3350	262.4027137825	140
6	3361	265.5437990906	141
6	3370	266.73876566924	142
6	3382	268.65187029101	143
6	3402	271.00555259212	144
6	3435	272.64968750176	145
6	3446	273.30460981564	146
6	3460	275.96877481148	147
6	3468	277.15925605096	148
6	3483	283.8158069399	149
6	3498	286.91555769411	150
6	3516	289.74881682408	151
6	3527	292.34782682493	152
6	3534	293.07461788055	153
6	3655	307.32260422193	154
6	3681	321.34906274327	155
6	3709	330.38948409137	156
6	3720	333.62663641283	157
6	3743	342.65747474034	158
6	3752	344.63786791488	159
6	3863	351.56975847896	160
6	3895	363.75087769064	161
6	3899	364.18214512983	162
6	3931	379.78841026607	163
6	3956	385.57030361488	164
6	3971	389.81698675491	165
6	3994	400.08919826236	166
6	4112	413.16821491339	167
6	4141	424.97004956699	168
6	4152	426.71544583842	169
6	4185	439.41436069545	170
6	4202	444.81323681983	171
6	4315	455.26082823861	172
6	4340	464.55998274709	173
6	4349	466.07473172241	174
6	4392	486.0113502315	175
6	4533	510.63331236576	176
7	146	5.4876896908	1
7	191	14.09318205429	2
7	199	14.63470335345	3
7	279	24.31986141231	4
7	385	34.14714390508	5
7	393	34.85845666672	6
7	412	37.15264416243	7
7	437	40.20313862458	8
7	497	46.87394018577	9
7	645	51.54424776783	10
7	673	53.32278010764	11
7	689	54.12166652213	12
7	724	58.05916624902	13
7	792	66.35916625326	14
7	805	68.23440843089	15
7	843	71.05302982026	16
7	854	72.25000355502	17
7	888	76.16102639915	18
7	932	80.42425916291	19
7	992	84.94396986317	20
7	999	85.24148417232	21
7	1015	86.81971658597	22
7	1041	88.54504631776	23
7	1059	89.52224011293	24
7	1108	94.01407718951	25
7	1112	94.1543141797	26
7	1125	95.39892322959	27
7	1154	100.3673800568	28
7	1254	101.14874178769	29
7	1273	102.16989249284	30
7	1361	109.40829726112	31
7	1383	110.72565081509	32
7	1402	112.31754971379	33
7	1416	113.81779267396	34
7	1437	115.05080889787	35
7	1444	115.67529384726	36
7	1449	115.98865347276	37
7	1469	118.93461826084	38
7	1482	120.39053315173	39
7	1507	124.12506169467	40
7	1532	125.90895235598	41
7	1548	127.21946058273	42
7	1563	129.07089381655	43
7	1611	132.57256880977	44
7	1621	133.02148563315	45
7	1647	135.45989597908	46
7	1656	136.36881986612	47
7	1665	137.27615170473	48
7	1676	138.12792848274	49
7	1687	139.21280501987	50
7	1700	141.20364222773	51
7	1728	143.78436750376	52
7	1738	144.49156980373	53
7	1748	144.79074405333	54
7	1807	148.8197612494	55
7	1813	148.97354339695	56
7	1828	150.55090191484	57
7	1832	150.69500168534	58
7	1940	152.53739605302	59
7	1953	155.00105409642	60
7	1971	157.0237378165	61
7	1988	158.73928426293	62
7	2021	160.75260799205	63
7	2048	162.64473348384	64
7	2059	163.07272423701	65
7	2067	163.47139157232	66
7	2109	166.839716697	67
7	2122	168.56271131024	68
7	2168	172.7113375225	69
7	2172	172.84029581579	70
7	2193	175.83694687922	71
7	2212	176.84569204453	72
7	2226	178.68867745566	73
7	2249	180.48799382502	74
7	2275	182.86230123583	75
7	2288	183.64232979542	76
7	2300	184.64047865934	77
7	2306	185.04141026623	78
7	2341	187.65400206431	79
7	2362	189.23672820153	80
7	2371	190.35736153347	81
7	2375	190.56458347472	82
7	2383	191.47905163344	83
7	2401	193.75183484498	84
7	2412	194.45710394009	85
7	2419	194.55619796405	86
7	2427	196.08830361257	87
7	2585	201.18819927739	88
7	2594	202.04075762297	89
7	2612	202.92979201412	90
7	2618	203.1918593374	91
7	2632	204.20499517341	92
7	2636	204.46434790482	93
7	2648	205.37206064736	94
7	2656	206.8749093367	95
7	2668	207.95421688179	96
7	2677	208.3888561243	97
7	2688	209.06107759279	98
7	2706	209.9614745087	99
7	2721	211.37943728457	100
7	2736	213.19825498681	101
7	2743	213.44867921881	102
7	2752	214.29868411566	103
7	2764	216.46158017043	104
7	2779	217.04789951204	105
7	2787	217.47254127464	106
7	2791	217.63286103952	107
7	2802	219.21497242235	108
7	2851	222.65402405117	109
7	2863	223.20377284758	110
7	2871	223.48451764382	111
7	2882	224.6605514548	112
7	2894	226.67364613446	113
7	2898	226.81293278461	114
7	2909	227.64814097611	115
7	2917	229.82572154317	116
7	2938	231.27306464589	117
7	2946	231.59371395307	118
7	2970	233.15685086993	119
7	2987	234.71325158783	120
7	3005	236.56092345774	121
7	3013	237.39228382118	122
7	3042	239.66435908916	123
7	3064	241.13128001561	124
7	3069	241.88969830227	125
7	3076	242.40621258136	126
7	3094	244.47735223563	127
7	3099	245.08679564055	128
7	3112	246.29182612633	129
7	3120	246.91992620451	130
7	3144	248.14743978547	131
7	3148	248.73247095444	132
7	3162	250.61702230706	133
7	3267	251.94242929102	134
7	3278	253.25393881993	135
7	3300	255.83646202636	136
7	3318	258.24124974191	137
7	3335	261.19194471504	138
7	3340	261.37697813781	139
7	3350	262.4027137825	140
7	3361	265.5437990906	141
7	3370	266.73876566924	142
7	3382	268.65187029101	143
7	3402	271.00555259212	144
7	3435	272.64968750176	145
7	3446	273.30460981564	146
7	3460	275.96877481148	147
7	3468	277.15925605096	148
7	3483	283.8158069399	149
7	3498	286.91555769411	150
7	3516	289.74881682408	151
7	3527	292.34782682493	152
7	3534	293.07461788055	153
7	3655	307.32260422193	154
7	3681	321.34906274327	155
7	3709	330.38948409137	156
7	3720	333.62663641283	157
7	3743	342.65747474034	158
7	3752	344.63786791488	159
7	3863	351.56975847896	160
7	3895	363.75087769064	161
7	3899	364.18214512983	162
7	3931	379.78841026607	163
7	3956	385.57030361488	164
7	3971	389.81698675491	165
7	3994	400.08919826236	166
7	4112	413.16821491339	167
7	4141	424.97004956699	168
7	4152	426.71544583842	169
7	4185	439.41436069545	170
7	4202	444.81323681983	171
7	4315	455.26082823861	172
7	4340	464.55998274709	173
7	4349	466.07473172241	174
7	4392	486.0113502315	175
7	4533	510.63331236576	176
8	146	5.4876896908	1
8	191	14.09318205429	2
8	199	14.63470335345	3
8	279	24.31986141231	4
8	385	34.14714390508	5
8	393	34.85845666672	6
8	412	37.15264416243	7
8	437	40.20313862458	8
8	497	46.87394018577	9
8	645	51.54424776783	10
8	673	53.32278010764	11
8	689	54.12166652213	12
8	724	58.05916624902	13
8	792	66.35916625326	14
8	805	68.23440843089	15
8	843	71.05302982026	16
8	854	72.25000355502	17
8	888	76.16102639915	18
8	932	80.42425916291	19
8	992	84.94396986317	20
8	999	85.24148417232	21
8	1015	86.81971658597	22
8	1041	88.54504631776	23
8	1059	89.52224011293	24
8	1108	94.01407718951	25
8	1112	94.1543141797	26
8	1125	95.39892322959	27
8	1154	100.3673800568	28
8	1254	101.14874178769	29
8	1273	102.16989249284	30
8	1361	109.40829726112	31
8	1383	110.72565081509	32
8	1402	112.31754971379	33
8	1416	113.81779267396	34
8	1437	115.05080889787	35
8	1444	115.67529384726	36
8	1449	115.98865347276	37
8	1469	118.93461826084	38
8	1482	120.39053315173	39
8	1507	124.12506169467	40
8	1532	125.90895235598	41
8	1548	127.21946058273	42
8	1563	129.07089381655	43
8	1611	132.57256880977	44
8	1621	133.02148563315	45
8	1647	135.45989597908	46
8	1656	136.36881986612	47
8	1665	137.27615170473	48
8	1676	138.12792848274	49
8	1687	139.21280501987	50
8	1700	141.20364222773	51
8	1728	143.78436750376	52
8	1738	144.49156980373	53
8	1748	144.79074405333	54
8	1807	148.8197612494	55
8	1813	148.97354339695	56
8	1828	150.55090191484	57
8	1832	150.69500168534	58
8	1940	152.53739605302	59
8	1953	155.00105409642	60
8	1971	157.0237378165	61
8	1988	158.73928426293	62
8	2021	160.75260799205	63
8	2048	162.64473348384	64
8	2059	163.07272423701	65
8	2067	163.47139157232	66
8	2109	166.839716697	67
8	2122	168.56271131024	68
8	2168	172.7113375225	69
8	2172	172.84029581579	70
8	2193	175.83694687922	71
8	2212	176.84569204453	72
8	2226	178.68867745566	73
8	2249	180.48799382502	74
8	2275	182.86230123583	75
8	2288	183.64232979542	76
8	2300	184.64047865934	77
8	2306	185.04141026623	78
8	2341	187.65400206431	79
8	2362	189.23672820153	80
8	2371	190.35736153347	81
8	2375	190.56458347472	82
8	2383	191.47905163344	83
8	2401	193.75183484498	84
8	2412	194.45710394009	85
8	2419	194.55619796405	86
8	2427	196.08830361257	87
8	2585	201.18819927739	88
8	2594	202.04075762297	89
8	2612	202.92979201412	90
8	2618	203.1918593374	91
8	2632	204.20499517341	92
8	2636	204.46434790482	93
8	2648	205.37206064736	94
8	2656	206.8749093367	95
8	2668	207.95421688179	96
8	2677	208.3888561243	97
8	2688	209.06107759279	98
8	2706	209.9614745087	99
8	2721	211.37943728457	100
8	2736	213.19825498681	101
8	2743	213.44867921881	102
8	2752	214.29868411566	103
8	2764	216.46158017043	104
8	2779	217.04789951204	105
8	2787	217.47254127464	106
8	2791	217.63286103952	107
8	2802	219.21497242235	108
8	2851	222.65402405117	109
8	2863	223.20377284758	110
8	2871	223.48451764382	111
8	2882	224.6605514548	112
8	2894	226.67364613446	113
8	2898	226.81293278461	114
8	2909	227.64814097611	115
8	2917	229.82572154317	116
8	2938	231.27306464589	117
8	2946	231.59371395307	118
8	2970	233.15685086993	119
8	2987	234.71325158783	120
8	3005	236.56092345774	121
8	3013	237.39228382118	122
8	3042	239.66435908916	123
8	3064	241.13128001561	124
8	3069	241.88969830227	125
8	3076	242.40621258136	126
8	3094	244.47735223563	127
8	3099	245.08679564055	128
8	3112	246.29182612633	129
8	3120	246.91992620451	130
8	3144	248.14743978547	131
8	3148	248.73247095444	132
8	3162	250.61702230706	133
8	3267	251.94242929102	134
8	3278	253.25393881993	135
8	3300	255.83646202636	136
8	3318	258.24124974191	137
8	3335	261.19194471504	138
8	3340	261.37697813781	139
8	3350	262.4027137825	140
8	3361	265.5437990906	141
8	3370	266.73876566924	142
8	3382	268.65187029101	143
8	3402	271.00555259212	144
8	3435	272.64968750176	145
8	3446	273.30460981564	146
8	3460	275.96877481148	147
8	3468	277.15925605096	148
8	3483	283.8158069399	149
8	3498	286.91555769411	150
8	3516	289.74881682408	151
8	3527	292.34782682493	152
8	3534	293.07461788055	153
8	3655	307.32260422193	154
8	3681	321.34906274327	155
8	3709	330.38948409137	156
8	3720	333.62663641283	157
8	3743	342.65747474034	158
8	3752	344.63786791488	159
8	3863	351.56975847896	160
8	3895	363.75087769064	161
8	3899	364.18214512983	162
8	3931	379.78841026607	163
8	3956	385.57030361488	164
8	3971	389.81698675491	165
8	3994	400.08919826236	166
8	4112	413.16821491339	167
8	4141	424.97004956699	168
8	4152	426.71544583842	169
8	4185	439.41436069545	170
8	4202	444.81323681983	171
8	4315	455.26082823861	172
8	4340	464.55998274709	173
8	4349	466.07473172241	174
8	4392	486.0113502315	175
8	4533	510.63331236576	176
9	190	14.09318205429	180
9	644	51.54424776783	180
9	931	80.42425916291	180
9	1481	120.39053315173	180
9	1610	132.57256880977	180
9	1952	155.00105409642	180
9	2299	184.64047865934	180
9	2631	204.20499517341	180
9	2790	217.63286103952	180
9	3063	241.13128001561	180
9	3317	258.24124974191	180
9	3434	272.64968750176	180
9	3533	293.07461788055	180
10	190	14.09318205429	13.09318205429
10	644	51.54424776783	50.54424776783
10	931	80.42425916291	79.42425916291
10	1481	120.39053315173	119.39053315173
10	1610	132.57256880977	131.57256880977
10	1952	155.00105409642	154.00105409642
10	2299	184.64047865934	183.64047865934
10	2631	204.20499517341	203.20499517341
10	2790	217.63286103952	216.63286103952
10	3063	241.13128001561	240.13128001561
10	3317	258.24124974191	257.24124974191
10	3434	272.64968750176	271.64968750176
10	3533	293.07461788055	292.07461788055
11	190	14.09318205429	13.09318205429
12	198	14.63470335345	180
12	853	72.25000355502	180
12	1058	89.52224011293	180
12	1253	101.14874178769	180
12	1436	115.05080889787	180
12	1727	143.78436750376	180
12	2418	194.55619796405	180
12	2778	217.04789951204	180
12	3012	237.39228382118	180
12	3143	248.14743978547	180
12	3482	283.8158069399	180
12	3654	307.32260422193	180
12	3708	330.38948409137	180
12	3862	351.56975847896	180
12	3898	364.18214512983	180
13	198	14.63470335345	13.63470335345
13	853	72.25000355502	71.25000355502
13	1058	89.52224011293	88.52224011293
13	1253	101.14874178769	100.14874178769
13	1436	115.05080889787	114.05080889787
13	1727	143.78436750376	142.78436750376
13	2418	194.55619796405	193.55619796405
13	2778	217.04789951204	216.04789951204
13	3012	237.39228382118	236.39228382118
13	3143	248.14743978547	247.14743978547
13	3482	283.8158069399	282.8158069399
13	3654	307.32260422193	306.32260422193
13	3708	330.38948409137	329.38948409137
13	3862	351.56975847896	350.56975847896
13	3898	364.18214512983	363.18214512983
14	198	14.63470335345	13.63470335345
15	278	24.31986141231	180
15	436	40.20313862458	180
15	887	76.16102639915	180
15	1111	94.1543141797	180
15	1655	136.36881986612	180
15	2370	190.35736153347	180
15	2720	211.37943728457	180
15	3515	289.74881682408	180
16	278	24.31986141231	23.31986141231
16	436	40.20313862458	39.20313862458
16	887	76.16102639915	75.16102639915
16	1111	94.1543141797	93.1543141797
16	1655	136.36881986612	135.36881986612
16	2370	190.35736153347	189.35736153347
16	2720	211.37943728457	210.37943728457
16	3515	289.74881682408	288.74881682408
17	278	24.31986141231	23.31986141231
18	384	34.14714390508	180
18	672	53.32278010764	180
18	1382	110.72565081509	180
18	1812	148.97354339695	180
18	2248	180.48799382502	180
18	2426	196.08830361257	180
18	2655	206.8749093367	180
18	3119	246.91992620451	180
18	3381	268.65187029101	180
19	384	34.14714390508	33.14714390508
19	672	53.32278010764	52.32278010764
19	1382	110.72565081509	109.72565081509
19	1812	148.97354339695	147.97354339695
19	2248	180.48799382502	179.48799382502
19	2426	196.08830361257	195.08830361257
19	2655	206.8749093367	205.8749093367
19	3119	246.91992620451	245.91992620451
19	3381	268.65187029101	267.65187029101
20	384	34.14714390508	33.14714390508
21	392	34.85845666672	180
21	804	68.23440843089	180
21	1040	88.54504631776	180
21	1272	102.16989249284	180
21	1415	113.81779267396	180
21	1531	125.90895235598	180
21	1664	137.27615170473	180
21	2020	160.75260799205	180
21	2167	172.7113375225	180
21	2287	183.64232979542	180
21	2617	203.1918593374	180
21	2850	222.65402405117	180
21	3004	236.56092345774	180
22	392	34.85845666672	33.85845666672
22	804	68.23440843089	67.23440843089
22	1040	88.54504631776	87.54504631776
22	1272	102.16989249284	101.16989249284
22	1415	113.81779267396	112.81779267396
22	1531	125.90895235598	124.90895235598
22	1664	137.27615170473	136.27615170473
22	2020	160.75260799205	159.75260799205
22	2167	172.7113375225	171.7113375225
22	2287	183.64232979542	182.64232979542
22	2617	203.1918593374	202.1918593374
22	2850	222.65402405117	221.65402405117
22	3004	236.56092345774	235.56092345774
23	392	34.85845666672	33.85845666672
24	411	37.15264416243	180
24	1401	112.31754971379	180
24	1562	129.07089381655	180
24	2225	178.68867745566	180
24	2801	219.21497242235	180
24	3299	255.83646202636	180
24	3467	277.15925605096	180
25	411	37.15264416243	36.15264416243
25	1401	112.31754971379	111.31754971379
25	1562	129.07089381655	128.07089381655
25	2225	178.68867745566	177.68867745566
25	2801	219.21497242235	218.21497242235
25	3299	255.83646202636	254.83646202636
25	3467	277.15925605096	276.15925605096
26	411	37.15264416243	36.15264416243
27	496	46.87394018577	180
27	1107	94.01407718951	180
27	1506	124.12506169467	180
27	1675	138.12792848274	180
27	2667	207.95421688179	180
27	2893	226.67364613446	180
28	496	46.87394018577	45.87394018577
28	1107	94.01407718951	93.01407718951
28	1506	124.12506169467	123.12506169467
28	1675	138.12792848274	137.12792848274
28	2667	207.95421688179	206.95421688179
28	2893	226.67364613446	225.67364613446
29	496	46.87394018577	45.87394018577
30	688	54.12166652213	180
30	2361	189.23672820153	180
30	2735	213.19825498681	180
30	3147	248.73247095444	180
31	688	54.12166652213	53.12166652213
31	2361	189.23672820153	188.23672820153
31	2735	213.19825498681	212.19825498681
31	3147	248.73247095444	247.73247095444
32	688	54.12166652213	53.12166652213
33	723	58.05916624902	180
33	2121	168.56271131024	180
33	2687	209.06107759279	180
33	3068	241.88969830227	180
33	3401	271.00555259212	180
33	3680	321.34906274327	180
33	3719	333.62663641283	180
33	3751	344.63786791488	180
33	3894	363.75087769064	180
33	3930	379.78841026607	180
33	3970	389.81698675491	180
34	723	58.05916624902	57.05916624902
34	2121	168.56271131024	167.56271131024
34	2687	209.06107759279	208.06107759279
34	3068	241.88969830227	240.88969830227
34	3401	271.00555259212	270.00555259212
34	3680	321.34906274327	320.34906274327
34	3719	333.62663641283	332.62663641283
34	3751	344.63786791488	343.63786791488
34	3894	363.75087769064	362.75087769064
34	3930	379.78841026607	378.78841026607
34	3970	389.81698675491	388.81698675491
35	723	58.05916624902	57.05916624902
36	842	71.05302982026	180
36	1014	86.81971658597	180
36	1646	135.45989597908	180
36	1939	152.53739605302	180
36	2066	163.47139157232	180
36	2593	202.04075762297	180
36	3041	239.66435908916	180
37	842	71.05302982026	70.05302982026
37	1014	86.81971658597	85.81971658597
37	1646	135.45989597908	134.45989597908
37	1939	152.53739605302	151.53739605302
37	2066	163.47139157232	162.47139157232
37	2593	202.04075762297	201.04075762297
37	3041	239.66435908916	238.66435908916
38	842	71.05302982026	70.05302982026
39	991	84.94396986317	180
39	1124	95.39892322959	180
39	1620	133.02148563315	180
39	1806	148.8197612494	180
39	2211	176.84569204453	180
39	2340	187.65400206431	180
39	2676	208.3888561243	180
39	2969	233.15685086993	180
39	3111	246.29182612633	180
39	3360	265.5437990906	180
40	991	84.94396986317	83.94396986317
40	1124	95.39892322959	94.39892322959
40	1620	133.02148563315	132.02148563315
40	1806	148.8197612494	147.8197612494
40	2211	176.84569204453	175.84569204453
40	2340	187.65400206431	186.65400206431
40	2676	208.3888561243	207.3888561243
40	2969	233.15685086993	232.15685086993
40	3111	246.29182612633	245.29182612633
40	3360	265.5437990906	264.5437990906
41	991	84.94396986317	83.94396986317
42	998	85.24148417232	180
42	1448	115.98865347276	180
42	1547	127.21946058273	180
42	2058	163.07272423701	180
42	2786	217.47254127464	180
42	2908	227.64814097611	180
43	998	85.24148417232	84.24148417232
43	1448	115.98865347276	114.98865347276
43	1547	127.21946058273	126.21946058273
43	2058	163.07272423701	162.07272423701
43	2786	217.47254127464	216.47254127464
43	2908	227.64814097611	226.64814097611
44	998	85.24148417232	84.24148417232
45	1153	100.3673800568	180
45	1443	115.67529384726	180
45	1831	150.69500168534	180
45	2274	182.86230123583	180
45	2400	193.75183484498	180
45	2635	204.46434790482	180
45	2862	223.20377284758	180
45	3075	242.40621258136	180
46	1153	100.3673800568	99.3673800568
46	1443	115.67529384726	114.67529384726
46	1831	150.69500168534	149.69500168534
46	2274	182.86230123583	181.86230123583
46	2400	193.75183484498	192.75183484498
46	2635	204.46434790482	203.46434790482
46	2862	223.20377284758	222.20377284758
46	3075	242.40621258136	241.40621258136
47	1153	100.3673800568	99.3673800568
48	1468	118.93461826084	180
48	1827	150.55090191484	180
48	2108	166.839716697	180
48	2584	201.18819927739	180
48	2916	229.82572154317	180
49	1468	118.93461826084	117.93461826084
49	1827	150.55090191484	149.55090191484
49	2108	166.839716697	165.839716697
49	2584	201.18819927739	200.18819927739
49	2916	229.82572154317	228.82572154317
50	1468	118.93461826084	117.93461826084
51	1686	139.21280501987	180
51	2171	172.84029581579	180
51	2374	190.56458347472	180
51	2705	209.9614745087	180
51	2937	231.27306464589	180
51	3277	253.25393881993	180
51	3369	266.73876566924	180
51	3497	286.91555769411	180
52	1686	139.21280501987	138.21280501987
52	2171	172.84029581579	171.84029581579
52	2374	190.56458347472	189.56458347472
52	2705	209.9614745087	208.9614745087
52	2937	231.27306464589	230.27306464589
52	3277	253.25393881993	252.25393881993
52	3369	266.73876566924	265.73876566924
52	3497	286.91555769411	285.91555769411
53	1686	139.21280501987	138.21280501987
54	1699	141.20364222773	180
54	2305	185.04141026623	180
55	1699	141.20364222773	140.20364222773
55	2305	185.04141026623	184.04141026623
56	1699	141.20364222773	140.20364222773
57	1737	144.49156980373	180
57	1987	158.73928426293	180
57	2192	175.83694687922	180
57	2382	191.47905163344	180
57	2881	224.6605514548	180
57	3093	244.47735223563	180
57	3742	342.65747474034	180
58	1737	144.49156980373	143.49156980373
58	1987	158.73928426293	157.73928426293
58	2192	175.83694687922	174.83694687922
58	2382	191.47905163344	190.47905163344
58	2881	224.6605514548	223.6605514548
58	3093	244.47735223563	243.47735223563
58	3742	342.65747474034	341.65747474034
59	1737	144.49156980373	143.49156980373
60	2047	162.64473348384	180
60	2611	202.92979201412	180
60	2897	226.81293278461	180
60	3161	250.61702230706	180
60	3334	261.19194471504	180
60	3526	292.34782682493	180
60	3955	385.57030361488	180
60	3993	400.08919826236	180
60	4111	413.16821491339	180
60	4140	424.97004956699	180
60	4184	439.41436069545	180
60	4314	455.26082823861	180
60	4348	466.07473172241	180
61	2047	162.64473348384	161.64473348384
61	2611	202.92979201412	201.92979201412
61	2897	226.81293278461	225.81293278461
61	3161	250.61702230706	249.61702230706
61	3334	261.19194471504	260.19194471504
61	3526	292.34782682493	291.34782682493
61	3955	385.57030361488	384.57030361488
61	3993	400.08919826236	399.08919826236
61	4111	413.16821491339	412.16821491339
61	4140	424.97004956699	423.97004956699
61	4184	439.41436069545	438.41436069545
61	4314	455.26082823861	454.26082823861
61	4348	466.07473172241	465.07473172241
62	2047	162.64473348384	161.64473348384
63	2742	213.44867921881	180
63	3339	261.37697813781	180
63	3445	273.30460981564	180
64	2742	213.44867921881	212.44867921881
64	3339	261.37697813781	260.37697813781
64	3445	273.30460981564	272.30460981564
65	2742	213.44867921881	212.44867921881
66	2751	214.29868411566	180
66	2945	231.59371395307	180
67	2751	214.29868411566	213.29868411566
67	2945	231.59371395307	230.59371395307
68	2751	214.29868411566	213.29868411566
69	2763	216.46158017043	180
69	3349	262.4027137825	180
70	2763	216.46158017043	215.46158017043
70	3349	262.4027137825	261.4027137825
71	2763	216.46158017043	215.46158017043
72	3098	245.08679564055	180
73	3098	245.08679564055	244.08679564055
74	3098	245.08679564055	244.08679564055
75	3266	251.94242929102	180
76	3266	251.94242929102	250.94242929102
77	3266	251.94242929102	250.94242929102
78	3459	275.96877481148	180
79	3459	275.96877481148	274.96877481148
80	3459	275.96877481148	274.96877481148
81	4151	426.71544583842	180
81	4201	444.81323681983	180
81	4339	464.55998274709	180
81	4391	486.0113502315	180
81	4532	510.63331236576	180
82	4151	426.71544583842	425.71544583842
82	4201	444.81323681983	443.81323681983
82	4339	464.55998274709	463.55998274709
82	4391	486.0113502315	485.0113502315
82	4532	510.63331236576	509.63331236576
83	4151	426.71544583842	425.71544583842

