file 54472 1779838393                                           
version 3
run General-6-20260527-01:33:09-720927
attr configname General
attr datetime 20260527-01:33:09
attr datetimef 20260527-013309
attr experiment General
attr inifile Test_MLModel_1.ini
attr iterationvars $0=27456
attr iterationvarsd 27456
attr iterationvarsf 27456-
attr measurement $0=27456
attr network Florasat.Test_Individual.Florasat_Individual_Sats
attr processid 720927
attr repetition 6
attr replication #6
attr resultdir results
attr runnumber 6
attr seedset 6
config *.satellite[0].NoradModule.raan 185
config *.stats_altitude 670
config *.stats_raan 185
config image-path ../../images:../../../../samples/inet4.5_2/images
config network Florasat.Test_Individual.Florasat_Individual_Sats
config rng-class cMersenneTwister
config *.**.result-recording-modes -
config **.result-recording-modes -
config **.statistic-recording true
config **.scalar-recording true
config **.vector-recording true
config **.vector-record-eventnumbers true
config repeat 10
config seed-0-mt 27456
config sim-time-limit 749s
config simtime-resolution -11
config **.stats_altitude 670
config **.stats_raan 185
config *.radioMedium.backgroundNoise.power -110dBm
config *.radioMedium.mediumLimitCache.centerFrequency 868MHz
config *.radioMedium.mediumLimitCache.maxTransmissionDuration 4s
config *.radioMedium.mediumLimitCache.minInterferenceTime 0s
config **.numSatellites 1
config *.satellite[*].mobilityType "\"Sat_Mob_SatelliteMobility_Standalone\""
config *.satellite[*].noradModuleType "\"Sat_Mob_NoradA\""
config **.satellite[*].**.initFromDisplayString false
config *.satellite[*].mobility.faceForward true
config *.satellite[*].mobility.updateInterval 20s
config *.satellite[*].NoradModule.satName "\"FLoRaSat\""
config *.satellite[*].NoradModule.satIndex -1
config *.satellite[*].NoradModule.baseYear 20
config *.satellite[*].NoradModule.baseDay 1.5
config *.satellite[*].NoradModule.planes 1
config *.satellite[*].NoradModule.satPerPlane 1
config *.satellite[*].NoradModule.eccentricity 0.000001
config *.satellite[*].NoradModule.inclination 98
config *.satellite[*].NoradModule.altitude 670
config *.satellite[0].NoradModule.raan 185
config *.satellite[0].NoradModule.meanAnomaly 195
config *.satellite[*].phyDSL.radio.receiver.enableCollisionOverlap true
config *.satellite[*].phyDSL.radio.receiver.minCollisionOverlap 0s
config *.satellite[*].phyDSL.radio.antenna.typename ConstantGainAntenna
config *.satellite[*].phyDSL.radio.antenna.mobilityModule "\"^.^.^.mobility\""
config *.satellite[*].phyISL.radio.antenna.mobilityModule "\"^.^.^.mobility\""
config *.satellite[*].phyGSL.radio.antenna.mobilityModule "\"^.^.^.mobility\""
config *.satellite[*].phyDSL.radio.antenna.gain 12dB
config *.satellite[*].net.routingType "\"Null_Routing\""
config *.terminal[*].net.routingType "\"Ter_Null_Routing\""
config *.**.numGroundLinks 40
config *.satellite[*].**.interfaceTableModule "\"\""
config **.radioMedium.typename LoRaMedium
config **.radioMedium.analogModel.typename LoRaAnalogModel
config **.intraPlaneIslDisabled false
config **.interPlaneIslDisabled false
config **.numTerminals 30
config *.terminal[*].phy.radio.antenna.mobilityModule "\"^.^.^.mob\""
config *.terminal[*].dlk.mac.interfaceTableModule "\"\""
config *.terminal[*].dlk.energySourceModule "\"\""
config *.terminal[*].dlk.mac.LoRaTP "intuniform(12, 14)"
config *.terminal[*].dlk.mac.LoRaSF "intuniform(10, 12)"
config *.terminal[*].dlk.mac.useMLBox true
config *.terminal[*].dlk.mac.mlBox.modelPath "\"/home/ylnner/Documents/omnet++/omnetpp-6.3.0/projects/florasat_v4_ult_routing/simulations/Test_Individual/mlmodels/transformer_scripted.pt\""
config **.numberOfPacketsToSend 0
config **.timeToFirstPacket 1s
config **.timeToNextPacket 50s
config *.terminal[0].mob.radius 0.0
config *.terminal[0].mob.centerLatitude 54.978
config *.terminal[0].mob.centerLongitude -1.617
config *.terminal[1].mob.radius 0.0
config *.terminal[1].mob.centerLatitude 52.630
config *.terminal[1].mob.centerLongitude -1.139
config *.terminal[2].mob.radius 0.0
config *.terminal[2].mob.centerLatitude 52.612
config *.terminal[2].mob.centerLongitude -6.295
config *.terminal[3].mob.radius 0.0
config *.terminal[3].mob.centerLatitude 47.243
config *.terminal[3].mob.centerLongitude 6.024
config *.terminal[4].mob.radius 0.0
config *.terminal[4].mob.centerLatitude 43.610
config *.terminal[4].mob.centerLongitude 3.876
config *.terminal[5].mob.radius 0.0
config *.terminal[5].mob.centerLatitude 49.443
config *.terminal[5].mob.centerLongitude 1.099
config *.terminal[6].mob.radius 0.0
config *.terminal[6].mob.centerLatitude 37.992
config *.terminal[6].mob.centerLongitude -1.130
config *.terminal[7].mob.radius 0.0
config *.terminal[7].mob.centerLatitude 40.965
config *.terminal[7].mob.centerLongitude -5.664
config *.terminal[8].mob.radius 0.0
config *.terminal[8].mob.centerLatitude 40.657
config *.terminal[8].mob.centerLongitude -7.914
config *.terminal[9].mob.radius 0.0
config *.terminal[9].mob.centerLatitude 51.340
config *.terminal[9].mob.centerLongitude 12.373
config *.terminal[10].mob.radius 0.0
config *.terminal[10].mob.centerLatitude 51.455
config *.terminal[10].mob.centerLongitude 7.011
config *.terminal[11].mob.radius 0.0
config *.terminal[11].mob.centerLatitude 49.452
config *.terminal[11].mob.centerLongitude 11.076
config *.terminal[12].mob.radius 0.0
config *.terminal[12].mob.centerLatitude 43.769
config *.terminal[12].mob.centerLongitude 11.255
config *.terminal[13].mob.radius 0.0
config *.terminal[13].mob.centerLatitude 41.117
config *.terminal[13].mob.centerLongitude 16.871
config *.terminal[14].mob.radius 0.0
config *.terminal[14].mob.centerLatitude 52.132
config *.terminal[14].mob.centerLongitude 5.291
config *.terminal[15].mob.radius 0.0
config *.terminal[15].mob.centerLatitude 50.411
config *.terminal[15].mob.centerLongitude 4.444
config *.terminal[16].mob.radius 0.0
config *.terminal[16].mob.centerLatitude 47.559
config *.terminal[16].mob.centerLongitude 7.588
config *.terminal[17].mob.radius 0.0
config *.terminal[17].mob.centerLatitude 55.403
config *.terminal[17].mob.centerLongitude 10.402
config *.terminal[18].mob.radius 0.0
config *.terminal[18].mob.centerLatitude 59.858
config *.terminal[18].mob.centerLongitude 17.638
config *.terminal[19].mob.radius 0.0
config *.terminal[19].mob.centerLatitude 60.451
config *.terminal[19].mob.centerLongitude 22.266
config *.terminal[20].mob.radius 0.0
config *.terminal[20].mob.centerLatitude 56.325
config *.terminal[20].mob.centerLongitude 22.349
config *.terminal[21].mob.radius 0.0
config *.terminal[21].mob.centerLatitude 49.883
config *.terminal[21].mob.centerLongitude 18.568
config *.terminal[22].mob.radius 0.0
config *.terminal[22].mob.centerLatitude 47.531
config *.terminal[22].mob.centerLongitude 21.627
config *.terminal[23].mob.radius 0.0
config *.terminal[23].mob.centerLatitude 44.179
config *.terminal[23].mob.centerLongitude 28.649
config *.terminal[24].mob.radius 0.0
config *.terminal[24].mob.centerLatitude 45.327
config *.terminal[24].mob.centerLongitude 14.442
config *.terminal[25].mob.radius 0.0
config *.terminal[25].mob.centerLatitude 40.694
config *.terminal[25].mob.centerLongitude 30.400
config *.terminal[26].mob.radius 0.0
config *.terminal[26].mob.centerLatitude 37.066
config *.terminal[26].mob.centerLongitude 37.383
config *.terminal[27].mob.radius 0.0
config *.terminal[27].mob.centerLatitude 64.836
config *.terminal[27].mob.centerLongitude -23.708
config *.terminal[28].mob.radius 0.0
config *.terminal[28].mob.centerLatitude 28.099
config *.terminal[28].mob.centerLongitude -17.113
config *.terminal[29].mob.radius 0.0
config *.terminal[29].mob.centerLatitude 34.921
config *.terminal[29].mob.centerLongitude 33.623
config **.numStations 3
config **.numStations 3
config *.station[0].mobility.latitude 55.752
config *.station[0].mobility.longitude 37.616
config *.station[0].cityName "\"Moscow\""
config *.station[0].groundStationId 7
config *.station[0].routerAddr "\"10.0.0.29\""
config *.station[0].serving "\"10.0.0.29\""
config *.station[1].mobility.latitude 28.652
config *.station[1].mobility.longitude 77.231
config *.station[1].cityName "\"Delhi\""
config *.station[1].groundStationId 11
config *.station[1].routerAddr "\"10.0.0.45\""
config *.station[1].serving "\"10.0.0.45\""
config *.station[2].mobility.latitude 25.35
config *.station[2].mobility.longitude 51.24
config *.station[2].cityName "\"Katar\""
config *.station[2].groundStationId 19
config *.station[2].routerAddr "\"10.0.0.77\""
config *.station[2].serving "\"10.0.0.77\""
config *.visualizer.canvasVisualizer.mediumVisualizer.typename ""
config *.visualizer.*.radioVisualizer.displayAntennaLobes true
config *.visualizer.*.dataLinkVisualizer.displayLinks true
config *.visualizer.*.mobilityVisualizer.displayMovementTrails true
config *.visualizer.*.mobilityVisualizer.movementTrailLineWidth 1
config *.visualizer.*.mobilityVisualizer.trailLength 3000
config **.ttxStart_max 30s
config **.ttxIdle_min 10s
config **.ttxIdle_max 25s
config **.Ntw 2
config **.Ntx 45
config **.ttwDuration 550s

vector 0 Florasat_Individual_Sats.satellite[0].dlkDSL.mac "Satellite Position when Repetition Received" ETV
vector 1 Florasat_Individual_Sats.satellite[0].dlkDSL.mac "Repetition Position for Node 283 at Satellite" ETV
vector 2 Florasat_Individual_Sats.satellite[0].dlkDSL.mac "All Nodes Repetition Generation Delay at Satellite" ETV
vector 3 Florasat_Individual_Sats.satellite[0].dlkDSL.mac "Repetition Generation Delay for Node 283 at Satellite" ETV
vector 4 Florasat_Individual_Sats.satellite[0].dlkDSL.mac "All Nodes Message Generation Delay at Satellite" ETV
vector 5 Florasat_Individual_Sats.satellite[0].dlkDSL.mac "Message Generation Delay for Node 283 at Satellite" ETV
vector 6 Florasat_Individual_Sats.satellite[0].net.packetHandler "packets received" ETV
vector 7 Florasat_Individual_Sats.satellite[0].net.packetHandler "dropped unroutable" ETV
vector 8 Florasat_Individual_Sats.satellite[0].net.packetHandler "packets dropped" ETV
vector 9 Florasat_Individual_Sats.satellite[0].dlkDSL.mac "Repetition Position for Node 358 at Satellite" ETV
vector 10 Florasat_Individual_Sats.satellite[0].dlkDSL.mac "Repetition Generation Delay for Node 358 at Satellite" ETV
vector 11 Florasat_Individual_Sats.satellite[0].dlkDSL.mac "Message Generation Delay for Node 358 at Satellite" ETV
vector 12 Florasat_Individual_Sats.satellite[0].dlkDSL.mac "Repetition Position for Node 73 at Satellite" ETV
vector 13 Florasat_Individual_Sats.satellite[0].dlkDSL.mac "Repetition Generation Delay for Node 73 at Satellite" ETV
vector 14 Florasat_Individual_Sats.satellite[0].dlkDSL.mac "Message Generation Delay for Node 73 at Satellite" ETV
vector 15 Florasat_Individual_Sats.satellite[0].dlkDSL.mac "Repetition Position for Node 88 at Satellite" ETV
vector 16 Florasat_Individual_Sats.satellite[0].dlkDSL.mac "Repetition Generation Delay for Node 88 at Satellite" ETV
vector 17 Florasat_Individual_Sats.satellite[0].dlkDSL.mac "Message Generation Delay for Node 88 at Satellite" ETV
vector 18 Florasat_Individual_Sats.satellite[0].dlkDSL.mac "Repetition Position for Node 313 at Satellite" ETV
vector 19 Florasat_Individual_Sats.satellite[0].dlkDSL.mac "Repetition Generation Delay for Node 313 at Satellite" ETV
vector 20 Florasat_Individual_Sats.satellite[0].dlkDSL.mac "Message Generation Delay for Node 313 at Satellite" ETV
vector 21 Florasat_Individual_Sats.satellite[0].dlkDSL.mac "Repetition Position for Node 328 at Satellite" ETV
vector 22 Florasat_Individual_Sats.satellite[0].dlkDSL.mac "Repetition Generation Delay for Node 328 at Satellite" ETV
vector 23 Florasat_Individual_Sats.satellite[0].dlkDSL.mac "Message Generation Delay for Node 328 at Satellite" ETV
vector 24 Florasat_Individual_Sats.satellite[0].dlkDSL.mac "Repetition Position for Node 58 at Satellite" ETV
vector 25 Florasat_Individual_Sats.satellite[0].dlkDSL.mac "Repetition Generation Delay for Node 58 at Satellite" ETV
vector 26 Florasat_Individual_Sats.satellite[0].dlkDSL.mac "Message Generation Delay for Node 58 at Satellite" ETV
vector 27 Florasat_Individual_Sats.satellite[0].dlkDSL.mac "Repetition Position for Node 193 at Satellite" ETV
vector 28 Florasat_Individual_Sats.satellite[0].dlkDSL.mac "Repetition Generation Delay for Node 193 at Satellite" ETV
vector 29 Florasat_Individual_Sats.satellite[0].dlkDSL.mac "Message Generation Delay for Node 193 at Satellite" ETV
vector 30 Florasat_Individual_Sats.satellite[0].dlkDSL.mac "Repetition Position for Node 343 at Satellite" ETV
vector 31 Florasat_Individual_Sats.satellite[0].dlkDSL.mac "Repetition Generation Delay for Node 343 at Satellite" ETV
vector 32 Florasat_Individual_Sats.satellite[0].dlkDSL.mac "Message Generation Delay for Node 343 at Satellite" ETV
vector 33 Florasat_Individual_Sats.satellite[0].dlkDSL.mac "Repetition Position for Node 118 at Satellite" ETV
vector 34 Florasat_Individual_Sats.satellite[0].dlkDSL.mac "Repetition Generation Delay for Node 118 at Satellite" ETV
vector 35 Florasat_Individual_Sats.satellite[0].dlkDSL.mac "Message Generation Delay for Node 118 at Satellite" ETV
vector 36 Florasat_Individual_Sats.satellite[0].dlkDSL.mac "Repetition Position for Node 268 at Satellite" ETV
vector 37 Florasat_Individual_Sats.satellite[0].dlkDSL.mac "Repetition Generation Delay for Node 268 at Satellite" ETV
vector 38 Florasat_Individual_Sats.satellite[0].dlkDSL.mac "Message Generation Delay for Node 268 at Satellite" ETV
vector 39 Florasat_Individual_Sats.satellite[0].dlkDSL.mac "Repetition Position for Node 238 at Satellite" ETV
vector 40 Florasat_Individual_Sats.satellite[0].dlkDSL.mac "Repetition Generation Delay for Node 238 at Satellite" ETV
vector 41 Florasat_Individual_Sats.satellite[0].dlkDSL.mac "Message Generation Delay for Node 238 at Satellite" ETV
vector 42 Florasat_Individual_Sats.satellite[0].dlkDSL.mac "Repetition Position for Node 103 at Satellite" ETV
vector 43 Florasat_Individual_Sats.satellite[0].dlkDSL.mac "Repetition Generation Delay for Node 103 at Satellite" ETV
vector 44 Florasat_Individual_Sats.satellite[0].dlkDSL.mac "Message Generation Delay for Node 103 at Satellite" ETV
vector 45 Florasat_Individual_Sats.satellite[0].dlkDSL.mac "Repetition Position for Node 433 at Satellite" ETV
vector 46 Florasat_Individual_Sats.satellite[0].dlkDSL.mac "Repetition Generation Delay for Node 433 at Satellite" ETV
vector 47 Florasat_Individual_Sats.satellite[0].dlkDSL.mac "Message Generation Delay for Node 433 at Satellite" ETV
vector 48 Florasat_Individual_Sats.satellite[0].dlkDSL.mac "Repetition Position for Node 208 at Satellite" ETV
vector 49 Florasat_Individual_Sats.satellite[0].dlkDSL.mac "Repetition Generation Delay for Node 208 at Satellite" ETV
vector 50 Florasat_Individual_Sats.satellite[0].dlkDSL.mac "Message Generation Delay for Node 208 at Satellite" ETV
vector 51 Florasat_Individual_Sats.satellite[0].dlkDSL.mac "Repetition Position for Node 133 at Satellite" ETV
vector 52 Florasat_Individual_Sats.satellite[0].dlkDSL.mac "Repetition Generation Delay for Node 133 at Satellite" ETV
vector 53 Florasat_Individual_Sats.satellite[0].dlkDSL.mac "Message Generation Delay for Node 133 at Satellite" ETV
vector 54 Florasat_Individual_Sats.satellite[0].dlkDSL.mac "Repetition Position for Node 388 at Satellite" ETV
vector 55 Florasat_Individual_Sats.satellite[0].dlkDSL.mac "Repetition Generation Delay for Node 388 at Satellite" ETV
vector 56 Florasat_Individual_Sats.satellite[0].dlkDSL.mac "Message Generation Delay for Node 388 at Satellite" ETV
vector 57 Florasat_Individual_Sats.satellite[0].dlkDSL.mac "Repetition Position for Node 418 at Satellite" ETV
vector 58 Florasat_Individual_Sats.satellite[0].dlkDSL.mac "Repetition Generation Delay for Node 418 at Satellite" ETV
vector 59 Florasat_Individual_Sats.satellite[0].dlkDSL.mac "Message Generation Delay for Node 418 at Satellite" ETV
vector 60 Florasat_Individual_Sats.satellite[0].dlkDSL.mac "Repetition Position for Node 373 at Satellite" ETV
vector 61 Florasat_Individual_Sats.satellite[0].dlkDSL.mac "Repetition Generation Delay for Node 373 at Satellite" ETV
vector 62 Florasat_Individual_Sats.satellite[0].dlkDSL.mac "Message Generation Delay for Node 373 at Satellite" ETV
vector 63 Florasat_Individual_Sats.satellite[0].dlkDSL.mac "Repetition Position for Node 223 at Satellite" ETV
vector 64 Florasat_Individual_Sats.satellite[0].dlkDSL.mac "Repetition Generation Delay for Node 223 at Satellite" ETV
vector 65 Florasat_Individual_Sats.satellite[0].dlkDSL.mac "Message Generation Delay for Node 223 at Satellite" ETV
vector 66 Florasat_Individual_Sats.satellite[0].dlkDSL.mac "Repetition Position for Node 253 at Satellite" ETV
vector 67 Florasat_Individual_Sats.satellite[0].dlkDSL.mac "Repetition Generation Delay for Node 253 at Satellite" ETV
vector 68 Florasat_Individual_Sats.satellite[0].dlkDSL.mac "Message Generation Delay for Node 253 at Satellite" ETV
vector 69 Florasat_Individual_Sats.satellite[0].dlkDSL.mac "Repetition Position for Node 403 at Satellite" ETV
vector 70 Florasat_Individual_Sats.satellite[0].dlkDSL.mac "Repetition Generation Delay for Node 403 at Satellite" ETV
vector 71 Florasat_Individual_Sats.satellite[0].dlkDSL.mac "Message Generation Delay for Node 403 at Satellite" ETV
vector 72 Florasat_Individual_Sats.satellite[0].dlkDSL.mac "Repetition Position for Node 298 at Satellite" ETV
vector 73 Florasat_Individual_Sats.satellite[0].dlkDSL.mac "Repetition Generation Delay for Node 298 at Satellite" ETV
vector 74 Florasat_Individual_Sats.satellite[0].dlkDSL.mac "Message Generation Delay for Node 298 at Satellite" ETV
0	17594 4461 154 4331 8.53076672474 459.106257942 168 180 180 30240 5443200
1	22055 212 154 3014 8.53076672474 244.27960036848 8 180 180 1440 259200
2	22267 6422 154 4331 8.53076672474 459.106257942 168 7.53076672474 458.106257942 34016.574783099 8629238.8893907
3	28689 305 154 3014 8.53076672474 244.27960036848 8 7.53076672474 243.27960036848 1344.2356777965 264558.42888848
4	28994 859 154 2670 8.53076672474 215.55054968319 23 7.53076672474 214.55054968319 2006.0291551902 263188.97181068
5	29853 34 154 154 8.53076672474 8.53076672474 1 7.53076672474 7.53076672474 7.53076672474 56.712447462451
6	29887 4353 155 4332 8.53076672474 459.106257942 168 1 168 14196 1594684
7	34240 4353 155 4332 8.53076672474 459.106257942 168 1 168 14196 1594684
8	38593 4353 155 4332 8.53076672474 459.106257942 168 1 168 14196 1594684
9	42946 211 167 3261 11.2048247571 258.04857307795 8 180 180 1440 259200
10	43157 311 167 3261 11.2048247571 258.04857307795 8 10.2048247571 257.04857307795 1319.4744702221 260993.92407306
11	43468 35 167 167 11.2048247571 11.2048247571 1 10.2048247571 10.2048247571 10.2048247571 104.13844832312
12	43503 217 186 3256 13.19326571482 257.62384517761 8 180 180 1440 259200
13	43720 309 186 3256 13.19326571482 257.62384517761 8 12.19326571482 256.62384517761 1089.5768038318 210406.86007613
14	44029 37 186 186 13.19326571482 13.19326571482 1 12.19326571482 12.19326571482 12.19326571482 148.6757287922
15	44066 247 211 3361 16.38968105488 272.32788718948 9 180 180 1620 291600
16	44313 351 211 3361 16.38968105488 272.32788718948 9 15.38968105488 271.32788718948 1529.6048851903 310191.48118527
17	44664 37 211 211 16.38968105488 16.38968105488 1 15.38968105488 15.38968105488 15.38968105488 236.84228297093
18	44701 328 230 3442 18.71139786433 282.13307841673 12 180 180 2160 388800
19	45029 467 230 3442 18.71139786433 282.13307841673 12 17.71139786433 281.13307841673 2035.9052756322 432421.41041204
20	45496 37 230 230 18.71139786433 18.71139786433 1 17.71139786433 17.71139786433 17.71139786433 313.69361430859
21	45533 411 255 3407 20.14148331474 276.38260657196 15 180 180 2700 486000
22	45944 585 255 3407 20.14148331474 276.38260657196 15 19.14148331474 275.38260657196 2329.0251145096 453709.44957319
23	46529 37 255 255 20.14148331474 20.14148331474 1 19.14148331474 19.14148331474 19.14148331474 366.39638348847
24	46566 220 368 3619 30.86352227548 303.77567661636 8 180 180 1440 259200
25	46786 314 368 3619 30.86352227548 303.77567661636 8 29.86352227548 302.77567661636 1353.7388041353 297380.20944665
26	47100 37 368 368 30.86352227548 30.86352227548 1 29.86352227548 29.86352227548 29.86352227548 891.82996269809
27	47137 302 405 3857 34.82198492152 356.10366210917 11 180 180 1980 356400
28	47439 430 405 3857 34.82198492152 356.10366210917 11 33.82198492152 355.10366210917 2338.2111758799 628274.50745246
29	47869 37 405 405 34.82198492152 34.82198492152 1 33.82198492152 33.82198492152 33.82198492152 1143.9266640315
30	47906 357 483 3429 42.20434754951 278.58623131507 13 180 180 2340 421200
31	48263 509 483 3429 42.20434754951 278.58623131507 13 41.20434754951 277.58623131507 2017.9410952809 391305.43577825
32	48772 37 483 483 42.20434754951 42.20434754951 1 41.20434754951 41.20434754951 41.20434754951 1697.7982569808
33	48809 54 916 3067 76.08393738608 249.03417817645 2 180 180 360 64800
34	48863 77 916 3067 76.08393738608 249.03417817645 2 75.08393738608 248.03417817645 323.11811556253 67158.551197064
35	48940 37 916 916 76.08393738608 76.08393738608 1 75.08393738608 75.08393738608 75.08393738608 5637.5976533968
36	48977 162 1018 3372 85.37991314888 273.17247672 6 180 180 1080 194400
37	49139 228 1018 3372 85.37991314888 273.17247672 6 84.37991314888 272.17247672 1139.794512678 240740.84288857
38	49367 38 1018 1018 85.37991314888 85.37991314888 1 84.37991314888 84.37991314888 84.37991314888 7119.9697430125
39	49405 305 1115 4331 96.29802750767 459.106257942 11 180 180 1980 356400
40	49710 434 1115 4331 96.29802750767 459.106257942 11 95.29802750767 458.106257942 3431.6825564664 1275591.7734388
41	50144 38 1115 1115 96.29802750767 96.29802750767 1 95.29802750767 95.29802750767 95.29802750767 9081.7140468526
42	50182 111 1281 2819 103.70462836525 226.93927058544 4 180 180 720 129600
43	50293 158 1281 2819 103.70462836525 226.93927058544 4 102.70462836525 225.93927058544 626.4507547862 106071.29478128
44	50451 40 1281 1281 103.70462836525 103.70462836525 1 102.70462836525 102.70462836525 102.70462836525 10548.240687644
45	50491 56 1285 3228 103.85242447354 254.66006598881 2 180 180 360 64800
46	50547 80 1285 3228 103.85242447354 254.66006598881 2 102.85242447354 253.66006598881 356.51249046235 74922.050297533
47	50627 40 1285 1285 103.85242447354 103.85242447354 1 102.85242447354 102.85242447354 102.85242447354 10578.621220085
48	50667 112 1396 2305 112.50558309469 190.57820854223 4 180 180 720 129600
49	50779 160 1396 2305 112.50558309469 190.57820854223 4 111.50558309469 189.57820854223 586.68540361511 89767.773047994
50	50939 40 1396 1396 112.50558309469 112.50558309469 1 111.50558309469 111.50558309469 111.50558309469 12433.495061287
51	50979 138 1479 3422 122.84461433993 277.95965319841 5 180 180 900 162000
52	51117 196 1479 3422 122.84461433993 277.95965319841 5 121.84461433993 276.95965319841 1015.1994854464 227203.9720464
53	51313 40 1479 1479 122.84461433993 122.84461433993 1 121.84461433993 121.84461433993 121.84461433993 14846.110043646
54	51353 139 1628 3386 136.25583714567 274.01617795339 5 180 180 900 162000
55	51492 198 1628 3386 136.25583714567 274.01617795339 5 135.25583714567 273.01617795339 1002.3259969705 213072.93579213
56	51690 40 1628 1628 136.25583714567 136.25583714567 1 135.25583714567 135.25583714567 135.25583714567 18294.141481976
57	51730 140 1671 4145 140.08399180779 413.79802818937 5 180 180 900 162000
58	51870 200 1671 4145 140.08399180779 413.79802818937 5 139.08399180779 412.79802818937 1346.4729184862 428327.61226919
59	52070 40 1671 1671 140.08399180779 140.08399180779 1 139.08399180779 139.08399180779 139.08399180779 19344.356777189
60	52110 224 1713 3731 142.73588378195 341.87849837801 8 180 180 1440 259200
61	52334 320 1713 3731 142.73588378195 341.87849837801 8 141.73588378195 340.87849837801 2060.2118252404 568185.82028282
62	52654 40 1713 1713 142.73588378195 142.73588378195 1 141.73588378195 141.73588378195 141.73588378195 20089.06075145
63	52694 307 1723 4114 143.23061641133 407.12365989634 11 180 180 1980 356400
64	53001 438 1723 4114 143.23061641133 407.12365989634 11 142.23061641133 406.12365989634 3344.8960492102 1105385.3232579
65	53439 40 1723 1723 143.23061641133 143.23061641133 1 142.23061641133 142.23061641133 142.23061641133 20229.548244747
66	53479 139 1761 3285 146.50834412955 262.9468707327 5 180 180 900 162000
67	53618 198 1761 3285 146.50834412955 262.9468707327 5 145.50834412955 261.9468707327 1007.1821102913 210168.96094675
68	53816 40 1761 1761 146.50834412955 146.50834412955 1 145.50834412955 145.50834412955 145.50834412955 21172.678211324
69	53856 109 2617 3642 207.93352973758 315.3927967883 4 180 180 720 129600
70	53965 154 2617 3642 207.93352973758 315.3927967883 4 206.93352973758 314.3927967883 1051.9358690083 284791.11413287
71	54119 40 2617 2617 207.93352973758 207.93352973758 1 206.93352973758 206.93352973758 206.93352973758 42821.485729654
72	54159 112 2670 4002 215.55054968319 398.11169986128 4 180 180 720 129600
73	54271 160 2670 4002 215.55054968319 398.11169986128 4 214.55054968319 397.11169986128 1366.3933923963 488609.15812585
74	54431 40 2670 2670 215.55054968319 215.55054968319 1 214.55054968319 214.55054968319 214.55054968319 46031.938369359

