file 49127 1779838389                                           
version 3
run General-5-20260527-01:33:04-720927
attr configname General
attr datetime 20260527-01:33:04
attr datetimef 20260527-013304
attr experiment General
attr inifile Test_MLModel_1.ini
attr iterationvars $0=88143
attr iterationvarsd 88143
attr iterationvarsf 88143-
attr measurement $0=88143
attr network Florasat.Test_Individual.Florasat_Individual_Sats
attr processid 720927
attr repetition 5
attr replication #5
attr resultdir results
attr runnumber 5
attr seedset 5
config *.satellite[0].NoradModule.raan 185
config *.stats_altitude 670
config *.stats_raan 185
config image-path ../../images:../../../../samples/inet4.5_2/images
config network Florasat.Test_Individual.Florasat_Individual_Sats
config rng-class cMersenneTwister
config *.**.result-recording-modes -
config **.result-recording-modes -
config **.statistic-recording true
config **.scalar-recording true
config **.vector-recording true
config **.vector-record-eventnumbers true
config repeat 10
config seed-0-mt 88143
config sim-time-limit 749s
config simtime-resolution -11
config **.stats_altitude 670
config **.stats_raan 185
config *.radioMedium.backgroundNoise.power -110dBm
config *.radioMedium.mediumLimitCache.centerFrequency 868MHz
config *.radioMedium.mediumLimitCache.maxTransmissionDuration 4s
config *.radioMedium.mediumLimitCache.minInterferenceTime 0s
config **.numSatellites 1
config *.satellite[*].mobilityType "\"Sat_Mob_SatelliteMobility_Standalone\""
config *.satellite[*].noradModuleType "\"Sat_Mob_NoradA\""
config **.satellite[*].**.initFromDisplayString false
config *.satellite[*].mobility.faceForward true
config *.satellite[*].mobility.updateInterval 20s
config *.satellite[*].NoradModule.satName "\"FLoRaSat\""
config *.satellite[*].NoradModule.satIndex -1
config *.satellite[*].NoradModule.baseYear 20
config *.satellite[*].NoradModule.baseDay 1.5
config *.satellite[*].NoradModule.planes 1
config *.satellite[*].NoradModule.satPerPlane 1
config *.satellite[*].NoradModule.eccentricity 0.000001
config *.satellite[*].NoradModule.inclination 98
config *.satellite[*].NoradModule.altitude 670
config *.satellite[0].NoradModule.raan 185
config *.satellite[0].NoradModule.meanAnomaly 195
config *.satellite[*].phyDSL.radio.receiver.enableCollisionOverlap true
config *.satellite[*].phyDSL.radio.receiver.minCollisionOverlap 0s
config *.satellite[*].phyDSL.radio.antenna.typename ConstantGainAntenna
config *.satellite[*].phyDSL.radio.antenna.mobilityModule "\"^.^.^.mobility\""
config *.satellite[*].phyISL.radio.antenna.mobilityModule "\"^.^.^.mobility\""
config *.satellite[*].phyGSL.radio.antenna.mobilityModule "\"^.^.^.mobility\""
config *.satellite[*].phyDSL.radio.antenna.gain 12dB
config *.satellite[*].net.routingType "\"Null_Routing\""
config *.terminal[*].net.routingType "\"Ter_Null_Routing\""
config *.**.numGroundLinks 40
config *.satellite[*].**.interfaceTableModule "\"\""
config **.radioMedium.typename LoRaMedium
config **.radioMedium.analogModel.typename LoRaAnalogModel
config **.intraPlaneIslDisabled false
config **.interPlaneIslDisabled false
config **.numTerminals 30
config *.terminal[*].phy.radio.antenna.mobilityModule "\"^.^.^.mob\""
config *.terminal[*].dlk.mac.interfaceTableModule "\"\""
config *.terminal[*].dlk.energySourceModule "\"\""
config *.terminal[*].dlk.mac.LoRaTP "intuniform(12, 14)"
config *.terminal[*].dlk.mac.LoRaSF "intuniform(10, 12)"
config *.terminal[*].dlk.mac.useMLBox true
config *.terminal[*].dlk.mac.mlBox.modelPath "\"/home/ylnner/Documents/omnet++/omnetpp-6.3.0/projects/florasat_v4_ult_routing/simulations/Test_Individual/mlmodels/transformer_scripted.pt\""
config **.numberOfPacketsToSend 0
config **.timeToFirstPacket 1s
config **.timeToNextPacket 50s
config *.terminal[0].mob.radius 0.0
config *.terminal[0].mob.centerLatitude 54.978
config *.terminal[0].mob.centerLongitude -1.617
config *.terminal[1].mob.radius 0.0
config *.terminal[1].mob.centerLatitude 52.630
config *.terminal[1].mob.centerLongitude -1.139
config *.terminal[2].mob.radius 0.0
config *.terminal[2].mob.centerLatitude 52.612
config *.terminal[2].mob.centerLongitude -6.295
config *.terminal[3].mob.radius 0.0
config *.terminal[3].mob.centerLatitude 47.243
config *.terminal[3].mob.centerLongitude 6.024
config *.terminal[4].mob.radius 0.0
config *.terminal[4].mob.centerLatitude 43.610
config *.terminal[4].mob.centerLongitude 3.876
config *.terminal[5].mob.radius 0.0
config *.terminal[5].mob.centerLatitude 49.443
config *.terminal[5].mob.centerLongitude 1.099
config *.terminal[6].mob.radius 0.0
config *.terminal[6].mob.centerLatitude 37.992
config *.terminal[6].mob.centerLongitude -1.130
config *.terminal[7].mob.radius 0.0
config *.terminal[7].mob.centerLatitude 40.965
config *.terminal[7].mob.centerLongitude -5.664
config *.terminal[8].mob.radius 0.0
config *.terminal[8].mob.centerLatitude 40.657
config *.terminal[8].mob.centerLongitude -7.914
config *.terminal[9].mob.radius 0.0
config *.terminal[9].mob.centerLatitude 51.340
config *.terminal[9].mob.centerLongitude 12.373
config *.terminal[10].mob.radius 0.0
config *.terminal[10].mob.centerLatitude 51.455
config *.terminal[10].mob.centerLongitude 7.011
config *.terminal[11].mob.radius 0.0
config *.terminal[11].mob.centerLatitude 49.452
config *.terminal[11].mob.centerLongitude 11.076
config *.terminal[12].mob.radius 0.0
config *.terminal[12].mob.centerLatitude 43.769
config *.terminal[12].mob.centerLongitude 11.255
config *.terminal[13].mob.radius 0.0
config *.terminal[13].mob.centerLatitude 41.117
config *.terminal[13].mob.centerLongitude 16.871
config *.terminal[14].mob.radius 0.0
config *.terminal[14].mob.centerLatitude 52.132
config *.terminal[14].mob.centerLongitude 5.291
config *.terminal[15].mob.radius 0.0
config *.terminal[15].mob.centerLatitude 50.411
config *.terminal[15].mob.centerLongitude 4.444
config *.terminal[16].mob.radius 0.0
config *.terminal[16].mob.centerLatitude 47.559
config *.terminal[16].mob.centerLongitude 7.588
config *.terminal[17].mob.radius 0.0
config *.terminal[17].mob.centerLatitude 55.403
config *.terminal[17].mob.centerLongitude 10.402
config *.terminal[18].mob.radius 0.0
config *.terminal[18].mob.centerLatitude 59.858
config *.terminal[18].mob.centerLongitude 17.638
config *.terminal[19].mob.radius 0.0
config *.terminal[19].mob.centerLatitude 60.451
config *.terminal[19].mob.centerLongitude 22.266
config *.terminal[20].mob.radius 0.0
config *.terminal[20].mob.centerLatitude 56.325
config *.terminal[20].mob.centerLongitude 22.349
config *.terminal[21].mob.radius 0.0
config *.terminal[21].mob.centerLatitude 49.883
config *.terminal[21].mob.centerLongitude 18.568
config *.terminal[22].mob.radius 0.0
config *.terminal[22].mob.centerLatitude 47.531
config *.terminal[22].mob.centerLongitude 21.627
config *.terminal[23].mob.radius 0.0
config *.terminal[23].mob.centerLatitude 44.179
config *.terminal[23].mob.centerLongitude 28.649
config *.terminal[24].mob.radius 0.0
config *.terminal[24].mob.centerLatitude 45.327
config *.terminal[24].mob.centerLongitude 14.442
config *.terminal[25].mob.radius 0.0
config *.terminal[25].mob.centerLatitude 40.694
config *.terminal[25].mob.centerLongitude 30.400
config *.terminal[26].mob.radius 0.0
config *.terminal[26].mob.centerLatitude 37.066
config *.terminal[26].mob.centerLongitude 37.383
config *.terminal[27].mob.radius 0.0
config *.terminal[27].mob.centerLatitude 64.836
config *.terminal[27].mob.centerLongitude -23.708
config *.terminal[28].mob.radius 0.0
config *.terminal[28].mob.centerLatitude 28.099
config *.terminal[28].mob.centerLongitude -17.113
config *.terminal[29].mob.radius 0.0
config *.terminal[29].mob.centerLatitude 34.921
config *.terminal[29].mob.centerLongitude 33.623
config **.numStations 3
config **.numStations 3
config *.station[0].mobility.latitude 55.752
config *.station[0].mobility.longitude 37.616
config *.station[0].cityName "\"Moscow\""
config *.station[0].groundStationId 7
config *.station[0].routerAddr "\"10.0.0.29\""
config *.station[0].serving "\"10.0.0.29\""
config *.station[1].mobility.latitude 28.652
config *.station[1].mobility.longitude 77.231
config *.station[1].cityName "\"Delhi\""
config *.station[1].groundStationId 11
config *.station[1].routerAddr "\"10.0.0.45\""
config *.station[1].serving "\"10.0.0.45\""
config *.station[2].mobility.latitude 25.35
config *.station[2].mobility.longitude 51.24
config *.station[2].cityName "\"Katar\""
config *.station[2].groundStationId 19
config *.station[2].routerAddr "\"10.0.0.77\""
config *.station[2].serving "\"10.0.0.77\""
config *.visualizer.canvasVisualizer.mediumVisualizer.typename ""
config *.visualizer.*.radioVisualizer.displayAntennaLobes true
config *.visualizer.*.dataLinkVisualizer.displayLinks true
config *.visualizer.*.mobilityVisualizer.displayMovementTrails true
config *.visualizer.*.mobilityVisualizer.movementTrailLineWidth 1
config *.visualizer.*.mobilityVisualizer.trailLength 3000
config **.ttxStart_max 30s
config **.ttxIdle_min 10s
config **.ttxIdle_max 25s
config **.Ntw 2
config **.Ntx 45
config **.ttwDuration 550s

vector 0 Florasat_Individual_Sats.satellite[0].dlkDSL.mac "Satellite Position when Repetition Received" ETV
vector 1 Florasat_Individual_Sats.satellite[0].dlkDSL.mac "Repetition Position for Node 403 at Satellite" ETV
vector 2 Florasat_Individual_Sats.satellite[0].dlkDSL.mac "All Nodes Repetition Generation Delay at Satellite" ETV
vector 3 Florasat_Individual_Sats.satellite[0].dlkDSL.mac "Repetition Generation Delay for Node 403 at Satellite" ETV
vector 4 Florasat_Individual_Sats.satellite[0].dlkDSL.mac "All Nodes Message Generation Delay at Satellite" ETV
vector 5 Florasat_Individual_Sats.satellite[0].dlkDSL.mac "Message Generation Delay for Node 403 at Satellite" ETV
vector 6 Florasat_Individual_Sats.satellite[0].net.packetHandler "packets received" ETV
vector 7 Florasat_Individual_Sats.satellite[0].net.packetHandler "dropped unroutable" ETV
vector 8 Florasat_Individual_Sats.satellite[0].net.packetHandler "packets dropped" ETV
vector 9 Florasat_Individual_Sats.satellite[0].dlkDSL.mac "Repetition Position for Node 358 at Satellite" ETV
vector 10 Florasat_Individual_Sats.satellite[0].dlkDSL.mac "Repetition Generation Delay for Node 358 at Satellite" ETV
vector 11 Florasat_Individual_Sats.satellite[0].dlkDSL.mac "Message Generation Delay for Node 358 at Satellite" ETV
vector 12 Florasat_Individual_Sats.satellite[0].dlkDSL.mac "Repetition Position for Node 328 at Satellite" ETV
vector 13 Florasat_Individual_Sats.satellite[0].dlkDSL.mac "Repetition Generation Delay for Node 328 at Satellite" ETV
vector 14 Florasat_Individual_Sats.satellite[0].dlkDSL.mac "Message Generation Delay for Node 328 at Satellite" ETV
vector 15 Florasat_Individual_Sats.satellite[0].dlkDSL.mac "Repetition Position for Node 268 at Satellite" ETV
vector 16 Florasat_Individual_Sats.satellite[0].dlkDSL.mac "Repetition Generation Delay for Node 268 at Satellite" ETV
vector 17 Florasat_Individual_Sats.satellite[0].dlkDSL.mac "Message Generation Delay for Node 268 at Satellite" ETV
vector 18 Florasat_Individual_Sats.satellite[0].dlkDSL.mac "Repetition Position for Node 133 at Satellite" ETV
vector 19 Florasat_Individual_Sats.satellite[0].dlkDSL.mac "Repetition Generation Delay for Node 133 at Satellite" ETV
vector 20 Florasat_Individual_Sats.satellite[0].dlkDSL.mac "Message Generation Delay for Node 133 at Satellite" ETV
vector 21 Florasat_Individual_Sats.satellite[0].dlkDSL.mac "Repetition Position for Node 343 at Satellite" ETV
vector 22 Florasat_Individual_Sats.satellite[0].dlkDSL.mac "Repetition Generation Delay for Node 343 at Satellite" ETV
vector 23 Florasat_Individual_Sats.satellite[0].dlkDSL.mac "Message Generation Delay for Node 343 at Satellite" ETV
vector 24 Florasat_Individual_Sats.satellite[0].dlkDSL.mac "Repetition Position for Node 58 at Satellite" ETV
vector 25 Florasat_Individual_Sats.satellite[0].dlkDSL.mac "Repetition Generation Delay for Node 58 at Satellite" ETV
vector 26 Florasat_Individual_Sats.satellite[0].dlkDSL.mac "Message Generation Delay for Node 58 at Satellite" ETV
vector 27 Florasat_Individual_Sats.satellite[0].dlkDSL.mac "Repetition Position for Node 373 at Satellite" ETV
vector 28 Florasat_Individual_Sats.satellite[0].dlkDSL.mac "Repetition Generation Delay for Node 373 at Satellite" ETV
vector 29 Florasat_Individual_Sats.satellite[0].dlkDSL.mac "Message Generation Delay for Node 373 at Satellite" ETV
vector 30 Florasat_Individual_Sats.satellite[0].dlkDSL.mac "Repetition Position for Node 313 at Satellite" ETV
vector 31 Florasat_Individual_Sats.satellite[0].dlkDSL.mac "Repetition Generation Delay for Node 313 at Satellite" ETV
vector 32 Florasat_Individual_Sats.satellite[0].dlkDSL.mac "Message Generation Delay for Node 313 at Satellite" ETV
vector 33 Florasat_Individual_Sats.satellite[0].dlkDSL.mac "Repetition Position for Node 73 at Satellite" ETV
vector 34 Florasat_Individual_Sats.satellite[0].dlkDSL.mac "Repetition Generation Delay for Node 73 at Satellite" ETV
vector 35 Florasat_Individual_Sats.satellite[0].dlkDSL.mac "Message Generation Delay for Node 73 at Satellite" ETV
vector 36 Florasat_Individual_Sats.satellite[0].dlkDSL.mac "Repetition Position for Node 193 at Satellite" ETV
vector 37 Florasat_Individual_Sats.satellite[0].dlkDSL.mac "Repetition Generation Delay for Node 193 at Satellite" ETV
vector 38 Florasat_Individual_Sats.satellite[0].dlkDSL.mac "Message Generation Delay for Node 193 at Satellite" ETV
vector 39 Florasat_Individual_Sats.satellite[0].dlkDSL.mac "Repetition Position for Node 283 at Satellite" ETV
vector 40 Florasat_Individual_Sats.satellite[0].dlkDSL.mac "Repetition Generation Delay for Node 283 at Satellite" ETV
vector 41 Florasat_Individual_Sats.satellite[0].dlkDSL.mac "Message Generation Delay for Node 283 at Satellite" ETV
vector 42 Florasat_Individual_Sats.satellite[0].dlkDSL.mac "Repetition Position for Node 418 at Satellite" ETV
vector 43 Florasat_Individual_Sats.satellite[0].dlkDSL.mac "Repetition Generation Delay for Node 418 at Satellite" ETV
vector 44 Florasat_Individual_Sats.satellite[0].dlkDSL.mac "Message Generation Delay for Node 418 at Satellite" ETV
vector 45 Florasat_Individual_Sats.satellite[0].dlkDSL.mac "Repetition Position for Node 223 at Satellite" ETV
vector 46 Florasat_Individual_Sats.satellite[0].dlkDSL.mac "Repetition Generation Delay for Node 223 at Satellite" ETV
vector 47 Florasat_Individual_Sats.satellite[0].dlkDSL.mac "Message Generation Delay for Node 223 at Satellite" ETV
vector 48 Florasat_Individual_Sats.satellite[0].dlkDSL.mac "Repetition Position for Node 238 at Satellite" ETV
vector 49 Florasat_Individual_Sats.satellite[0].dlkDSL.mac "Repetition Generation Delay for Node 238 at Satellite" ETV
vector 50 Florasat_Individual_Sats.satellite[0].dlkDSL.mac "Message Generation Delay for Node 238 at Satellite" ETV
vector 51 Florasat_Individual_Sats.satellite[0].dlkDSL.mac "Repetition Position for Node 388 at Satellite" ETV
vector 52 Florasat_Individual_Sats.satellite[0].dlkDSL.mac "Repetition Generation Delay for Node 388 at Satellite" ETV
vector 53 Florasat_Individual_Sats.satellite[0].dlkDSL.mac "Message Generation Delay for Node 388 at Satellite" ETV
vector 54 Florasat_Individual_Sats.satellite[0].dlkDSL.mac "Repetition Position for Node 88 at Satellite" ETV
vector 55 Florasat_Individual_Sats.satellite[0].dlkDSL.mac "Repetition Generation Delay for Node 88 at Satellite" ETV
vector 56 Florasat_Individual_Sats.satellite[0].dlkDSL.mac "Message Generation Delay for Node 88 at Satellite" ETV
vector 57 Florasat_Individual_Sats.satellite[0].dlkDSL.mac "Repetition Position for Node 103 at Satellite" ETV
vector 58 Florasat_Individual_Sats.satellite[0].dlkDSL.mac "Repetition Generation Delay for Node 103 at Satellite" ETV
vector 59 Florasat_Individual_Sats.satellite[0].dlkDSL.mac "Message Generation Delay for Node 103 at Satellite" ETV
vector 60 Florasat_Individual_Sats.satellite[0].dlkDSL.mac "Repetition Position for Node 208 at Satellite" ETV
vector 61 Florasat_Individual_Sats.satellite[0].dlkDSL.mac "Repetition Generation Delay for Node 208 at Satellite" ETV
vector 62 Florasat_Individual_Sats.satellite[0].dlkDSL.mac "Message Generation Delay for Node 208 at Satellite" ETV
vector 63 Florasat_Individual_Sats.satellite[0].dlkDSL.mac "Repetition Position for Node 148 at Satellite" ETV
vector 64 Florasat_Individual_Sats.satellite[0].dlkDSL.mac "Repetition Generation Delay for Node 148 at Satellite" ETV
vector 65 Florasat_Individual_Sats.satellite[0].dlkDSL.mac "Message Generation Delay for Node 148 at Satellite" ETV
vector 66 Florasat_Individual_Sats.satellite[0].dlkDSL.mac "Repetition Position for Node 118 at Satellite" ETV
vector 67 Florasat_Individual_Sats.satellite[0].dlkDSL.mac "Repetition Generation Delay for Node 118 at Satellite" ETV
vector 68 Florasat_Individual_Sats.satellite[0].dlkDSL.mac "Message Generation Delay for Node 118 at Satellite" ETV
vector 69 Florasat_Individual_Sats.satellite[0].dlkDSL.mac "Repetition Position for Node 298 at Satellite" ETV
vector 70 Florasat_Individual_Sats.satellite[0].dlkDSL.mac "Repetition Generation Delay for Node 298 at Satellite" ETV
vector 71 Florasat_Individual_Sats.satellite[0].dlkDSL.mac "Message Generation Delay for Node 298 at Satellite" ETV
vector 72 Florasat_Individual_Sats.satellite[0].dlkDSL.mac "Repetition Position for Node 253 at Satellite" ETV
vector 73 Florasat_Individual_Sats.satellite[0].dlkDSL.mac "Repetition Generation Delay for Node 253 at Satellite" ETV
vector 74 Florasat_Individual_Sats.satellite[0].dlkDSL.mac "Message Generation Delay for Node 253 at Satellite" ETV
0	17594 3790 160 4255 8.43245585043 471.49283614885 143 180 180 25740 4633200
1	21384 157 160 3051 8.43245585043 250.482635948 6 180 180 1080 194400
2	21541 5457 160 4255 8.43245585043 471.49283614885 143 7.43245585043 470.49283614885 27775.414322746 6878333.9976031
3	26998 225 160 3051 8.43245585043 250.482635948 6 7.43245585043 249.482635948 984.85528568952 205522.18659444
4	27223 855 160 3358 8.43245585043 277.01025874348 23 7.43245585043 276.01025874348 2479.0934477845 427427.10062982
5	28078 34 160 160 8.43245585043 8.43245585043 1 7.43245585043 7.43245585043 7.43245585043 55.241399968591
6	28112 3682 161 4256 8.43245585043 471.49283614885 143 1 143 10296 984984
7	31794 3682 161 4256 8.43245585043 471.49283614885 143 1 143 10296 984984
8	35476 3682 161 4256 8.43245585043 471.49283614885 143 1 143 10296 984984
9	39158 368 224 3178 16.58932087937 256.08397558908 14 180 180 2520 453600
10	39526 544 224 3178 16.58932087937 256.08397558908 14 15.58932087937 255.08397558908 1955.3439500037 347484.66882203
11	40070 37 224 224 16.58932087937 16.58932087937 1 15.58932087937 15.58932087937 15.58932087937 243.02692547996
12	40107 301 236 2871 18.11733536831 232.20126183647 11 180 180 1980 356400
13	40408 427 236 2871 18.11733536831 232.20126183647 11 17.11733536831 231.20126183647 1611.1165466304 278439.54599352
14	40835 37 236 236 18.11733536831 18.11733536831 1 17.11733536831 17.11733536831 17.11733536831 293.0031701112
15	40872 107 280 2914 24.26304862815 237.83551498415 4 180 180 720 129600
16	40979 152 280 2914 24.26304862815 237.83551498415 4 23.26304862815 236.83551498415 519.59682178399 99493.647155697
17	41131 37 280 280 24.26304862815 24.26304862815 1 23.26304862815 23.26304862815 23.26304862815 541.16943147567
18	41168 82 366 2728 31.67510652742 222.09412118831 3 180 180 540 97200
19	41250 117 366 2728 31.67510652742 222.09412118831 3 30.67510652742 221.09412118831 356.31172554797 60752.706437504
20	41367 37 366 366 31.67510652742 31.67510652742 1 30.67510652742 30.67510652742 30.67510652742 940.96216046857
21	41404 384 378 3157 32.47905787061 253.13888774931 14 180 180 2520 453600
22	41788 547 378 3157 32.47905787061 253.13888774931 14 31.47905787061 252.13888774931 1994.6293881975 346063.57362787
23	42335 37 378 378 32.47905787061 32.47905787061 1 31.47905787061 31.47905787061 31.47905787061 990.93108442121
24	42372 219 402 2821 34.38761016697 227.66774223879 8 180 180 1440 259200
25	42591 312 402 2821 34.38761016697 227.66774223879 8 33.38761016697 226.66774223879 1204.3414488644 215080.38818736
26	42903 37 402 402 34.38761016697 34.38761016697 1 33.38761016697 33.38761016697 33.38761016697 1114.7325126616
27	42940 219 467 3792 40.78007940416 355.67257968106 8 180 180 1440 259200
28	43159 312 467 3792 40.78007940416 355.67257968106 8 39.78007940416 354.67257968106 1593.7450522056 412722.90652375
29	43471 37 467 467 40.78007940416 40.78007940416 1 39.78007940416 39.78007940416 39.78007940416 1582.4547174013
30	43508 301 496 3371 44.51214532595 278.64298912575 11 180 180 1980 356400
31	43809 428 496 3371 44.51214532595 278.64298912575 11 43.51214532595 277.64298912575 1889.0864769792 387683.07325198
32	44237 37 496 496 44.51214532595 44.51214532595 1 43.51214532595 43.51214532595 43.51214532595 1893.3067908666
33	44274 248 705 3257 54.98725453269 262.41532537731 9 180 180 1620 291600
34	44522 354 705 3257 54.98725453269 262.41532537731 9 53.98725453269 261.41532537731 1480.8085640889 287276.84388678
35	44876 37 705 705 54.98725453269 54.98725453269 1 53.98725453269 53.98725453269 53.98725453269 2914.6236519775
36	44913 166 714 3687 56.29204263426 350.28460339393 6 180 180 1080 194400
37	45079 237 714 3687 56.29204263426 350.28460339393 6 55.29204263426 349.28460339393 1447.0172659155 414387.96185903
38	45316 37 714 714 56.29204263426 56.29204263426 1 55.29204263426 55.29204263426 55.29204263426 3057.2099786688
39	45353 164 932 2960 76.6925214691 242.57699114331 6 180 180 1080 194400
40	45517 233 932 2960 76.6925214691 242.57699114331 6 75.6925214691 241.57699114331 852.58967439862 140608.06885809
41	45750 35 932 932 76.6925214691 76.6925214691 1 75.6925214691 75.6925214691 75.6925214691 5729.3578063502
42	45785 110 1502 4038 122.9991787088 416.5552749634 4 180 180 720 129600
43	45895 156 1502 4038 122.9991787088 416.5552749634 4 121.9991787088 415.5552749634 1121.2474021822 378442.88655532
44	46051 38 1502 1502 122.9991787088 122.9991787088 1 121.9991787088 121.9991787088 121.9991787088 14883.799605622
45	46089 168 1671 4023 137.74283101492 414.18353460206 6 180 180 1080 194400
46	46257 240 1671 4023 137.74283101492 414.18353460206 6 136.74283101492 413.18353460206 1848.0294316342 634151.3605623
47	46497 40 1671 1671 137.74283101492 137.74283101492 1 136.74283101492 136.74283101492 136.74283101492 18698.601833975
48	46537 275 1738 4255 145.69097262518 471.49283614885 10 180 180 1800 324000
49	46812 390 1738 4255 145.69097262518 471.49283614885 10 144.69097262518 470.49283614885 3432.6577669838 1313318.6100794
50	47202 40 1738 1738 145.69097262518 145.69097262518 1 144.69097262518 144.69097262518 144.69097262518 20935.477559221
51	47242 56 1916 3218 152.96926424665 258.91638426868 2 180 180 360 64800
52	47298 80 1916 3218 152.96926424665 258.91638426868 2 151.96926424665 257.91638426868 409.88564851533 89615.518549898
53	47378 40 1916 1916 152.96926424665 152.96926424665 1 151.96926424665 151.96926424665 151.96926424665 23094.657275668
54	47418 196 2142 3424 175.24628360865 290.75979293084 7 180 180 1260 226800
55	47614 280 2142 3424 175.24628360865 290.75979293084 7 174.24628360865 289.75979293084 1632.8811690213 391001.19875398
56	47894 40 2142 2142 175.24628360865 175.24628360865 1 174.24628360865 174.24628360865 174.24628360865 30361.767351426
57	47934 84 2338 3395 193.16854316918 285.06403806911 3 180 180 540 97200
58	48018 120 2338 3395 193.16854316918 285.06403806911 3 192.16854316918 284.06403806911 741.78854917983 188141.09881726
59	48138 40 2338 2338 193.16854316918 193.16854316918 1 192.16854316918 192.16854316918 192.16854316918 36928.748983765
60	48178 112 2349 3631 193.62799387172 334.00458944941 4 180 180 720 129600
61	48290 160 2349 3631 193.62799387172 334.00458944941 4 192.62799387172 333.00458944941 1051.8497738155 293299.70260236
62	48450 40 2349 2349 193.62799387172 193.62799387172 1 192.62799387172 192.62799387172 192.62799387172 37105.544023043
63	48490 28 2357 2357 194.05806038006 194.05806038006 1 180 180 180 32400
64	48518 40 2357 2357 194.05806038006 194.05806038006 1 193.05806038006 193.05806038006 193.05806038006 37271.414677711
65	48558 40 2357 2357 194.05806038006 194.05806038006 1 193.05806038006 193.05806038006 193.05806038006 37271.414677711
66	48598 112 2382 3188 196.95514546933 256.77205916255 4 180 180 720 129600
67	48710 160 2382 3188 196.95514546933 256.77205916255 4 195.95514546933 255.77205916255 906.14712469626 207183.98515324
68	48870 40 2382 2382 196.95514546933 196.95514546933 1 195.95514546933 195.95514546933 195.95514546933 38398.419035906
69	48910 28 3329 3329 273.41693728912 273.41693728912 1 180 180 180 32400
70	48938 40 3329 3329 273.41693728912 273.41693728912 1 272.41693728912 272.41693728912 272.41693728912 74210.987721984
71	48978 40 3329 3329 273.41693728912 273.41693728912 1 272.41693728912 272.41693728912 272.41693728912 74210.987721984
72	49018 28 3358 3358 277.01025874348 277.01025874348 1 180 180 180 32400
73	49046 40 3358 3358 277.01025874348 277.01025874348 1 276.01025874348 276.01025874348 276.01025874348 76181.662931643
74	49086 40 3358 3358 277.01025874348 277.01025874348 1 276.01025874348 276.01025874348 276.01025874348 76181.662931643

