file 54300 1779838366                                           
version 3
run General-0-20260527-01:32:42-720927
attr configname General
attr datetime 20260527-01:32:42
attr datetimef 20260527-013242
attr experiment General
attr inifile Test_MLModel_1.ini
attr iterationvars $0=23542
attr iterationvarsd 23542
attr iterationvarsf 23542-
attr measurement $0=23542
attr network Florasat.Test_Individual.Florasat_Individual_Sats
attr processid 720927
attr repetition 0
attr replication #0
attr resultdir results
attr runnumber 0
attr seedset 0
config *.satellite[0].NoradModule.raan 185
config *.stats_altitude 670
config *.stats_raan 185
config image-path ../../images:../../../../samples/inet4.5_2/images
config network Florasat.Test_Individual.Florasat_Individual_Sats
config rng-class cMersenneTwister
config *.**.result-recording-modes -
config **.result-recording-modes -
config **.statistic-recording true
config **.scalar-recording true
config **.vector-recording true
config **.vector-record-eventnumbers true
config repeat 10
config seed-0-mt 23542
config sim-time-limit 749s
config simtime-resolution -11
config **.stats_altitude 670
config **.stats_raan 185
config *.radioMedium.backgroundNoise.power -110dBm
config *.radioMedium.mediumLimitCache.centerFrequency 868MHz
config *.radioMedium.mediumLimitCache.maxTransmissionDuration 4s
config *.radioMedium.mediumLimitCache.minInterferenceTime 0s
config **.numSatellites 1
config *.satellite[*].mobilityType "\"Sat_Mob_SatelliteMobility_Standalone\""
config *.satellite[*].noradModuleType "\"Sat_Mob_NoradA\""
config **.satellite[*].**.initFromDisplayString false
config *.satellite[*].mobility.faceForward true
config *.satellite[*].mobility.updateInterval 20s
config *.satellite[*].NoradModule.satName "\"FLoRaSat\""
config *.satellite[*].NoradModule.satIndex -1
config *.satellite[*].NoradModule.baseYear 20
config *.satellite[*].NoradModule.baseDay 1.5
config *.satellite[*].NoradModule.planes 1
config *.satellite[*].NoradModule.satPerPlane 1
config *.satellite[*].NoradModule.eccentricity 0.000001
config *.satellite[*].NoradModule.inclination 98
config *.satellite[*].NoradModule.altitude 670
config *.satellite[0].NoradModule.raan 185
config *.satellite[0].NoradModule.meanAnomaly 195
config *.satellite[*].phyDSL.radio.receiver.enableCollisionOverlap true
config *.satellite[*].phyDSL.radio.receiver.minCollisionOverlap 0s
config *.satellite[*].phyDSL.radio.antenna.typename ConstantGainAntenna
config *.satellite[*].phyDSL.radio.antenna.mobilityModule "\"^.^.^.mobility\""
config *.satellite[*].phyISL.radio.antenna.mobilityModule "\"^.^.^.mobility\""
config *.satellite[*].phyGSL.radio.antenna.mobilityModule "\"^.^.^.mobility\""
config *.satellite[*].phyDSL.radio.antenna.gain 12dB
config *.satellite[*].net.routingType "\"Null_Routing\""
config *.terminal[*].net.routingType "\"Ter_Null_Routing\""
config *.**.numGroundLinks 40
config *.satellite[*].**.interfaceTableModule "\"\""
config **.radioMedium.typename LoRaMedium
config **.radioMedium.analogModel.typename LoRaAnalogModel
config **.intraPlaneIslDisabled false
config **.interPlaneIslDisabled false
config **.numTerminals 30
config *.terminal[*].phy.radio.antenna.mobilityModule "\"^.^.^.mob\""
config *.terminal[*].dlk.mac.interfaceTableModule "\"\""
config *.terminal[*].dlk.energySourceModule "\"\""
config *.terminal[*].dlk.mac.LoRaTP "intuniform(12, 14)"
config *.terminal[*].dlk.mac.LoRaSF "intuniform(10, 12)"
config *.terminal[*].dlk.mac.useMLBox true
config *.terminal[*].dlk.mac.mlBox.modelPath "\"/home/ylnner/Documents/omnet++/omnetpp-6.3.0/projects/florasat_v4_ult_routing/simulations/Test_Individual/mlmodels/transformer_scripted.pt\""
config **.numberOfPacketsToSend 0
config **.timeToFirstPacket 1s
config **.timeToNextPacket 50s
config *.terminal[0].mob.radius 0.0
config *.terminal[0].mob.centerLatitude 54.978
config *.terminal[0].mob.centerLongitude -1.617
config *.terminal[1].mob.radius 0.0
config *.terminal[1].mob.centerLatitude 52.630
config *.terminal[1].mob.centerLongitude -1.139
config *.terminal[2].mob.radius 0.0
config *.terminal[2].mob.centerLatitude 52.612
config *.terminal[2].mob.centerLongitude -6.295
config *.terminal[3].mob.radius 0.0
config *.terminal[3].mob.centerLatitude 47.243
config *.terminal[3].mob.centerLongitude 6.024
config *.terminal[4].mob.radius 0.0
config *.terminal[4].mob.centerLatitude 43.610
config *.terminal[4].mob.centerLongitude 3.876
config *.terminal[5].mob.radius 0.0
config *.terminal[5].mob.centerLatitude 49.443
config *.terminal[5].mob.centerLongitude 1.099
config *.terminal[6].mob.radius 0.0
config *.terminal[6].mob.centerLatitude 37.992
config *.terminal[6].mob.centerLongitude -1.130
config *.terminal[7].mob.radius 0.0
config *.terminal[7].mob.centerLatitude 40.965
config *.terminal[7].mob.centerLongitude -5.664
config *.terminal[8].mob.radius 0.0
config *.terminal[8].mob.centerLatitude 40.657
config *.terminal[8].mob.centerLongitude -7.914
config *.terminal[9].mob.radius 0.0
config *.terminal[9].mob.centerLatitude 51.340
config *.terminal[9].mob.centerLongitude 12.373
config *.terminal[10].mob.radius 0.0
config *.terminal[10].mob.centerLatitude 51.455
config *.terminal[10].mob.centerLongitude 7.011
config *.terminal[11].mob.radius 0.0
config *.terminal[11].mob.centerLatitude 49.452
config *.terminal[11].mob.centerLongitude 11.076
config *.terminal[12].mob.radius 0.0
config *.terminal[12].mob.centerLatitude 43.769
config *.terminal[12].mob.centerLongitude 11.255
config *.terminal[13].mob.radius 0.0
config *.terminal[13].mob.centerLatitude 41.117
config *.terminal[13].mob.centerLongitude 16.871
config *.terminal[14].mob.radius 0.0
config *.terminal[14].mob.centerLatitude 52.132
config *.terminal[14].mob.centerLongitude 5.291
config *.terminal[15].mob.radius 0.0
config *.terminal[15].mob.centerLatitude 50.411
config *.terminal[15].mob.centerLongitude 4.444
config *.terminal[16].mob.radius 0.0
config *.terminal[16].mob.centerLatitude 47.559
config *.terminal[16].mob.centerLongitude 7.588
config *.terminal[17].mob.radius 0.0
config *.terminal[17].mob.centerLatitude 55.403
config *.terminal[17].mob.centerLongitude 10.402
config *.terminal[18].mob.radius 0.0
config *.terminal[18].mob.centerLatitude 59.858
config *.terminal[18].mob.centerLongitude 17.638
config *.terminal[19].mob.radius 0.0
config *.terminal[19].mob.centerLatitude 60.451
config *.terminal[19].mob.centerLongitude 22.266
config *.terminal[20].mob.radius 0.0
config *.terminal[20].mob.centerLatitude 56.325
config *.terminal[20].mob.centerLongitude 22.349
config *.terminal[21].mob.radius 0.0
config *.terminal[21].mob.centerLatitude 49.883
config *.terminal[21].mob.centerLongitude 18.568
config *.terminal[22].mob.radius 0.0
config *.terminal[22].mob.centerLatitude 47.531
config *.terminal[22].mob.centerLongitude 21.627
config *.terminal[23].mob.radius 0.0
config *.terminal[23].mob.centerLatitude 44.179
config *.terminal[23].mob.centerLongitude 28.649
config *.terminal[24].mob.radius 0.0
config *.terminal[24].mob.centerLatitude 45.327
config *.terminal[24].mob.centerLongitude 14.442
config *.terminal[25].mob.radius 0.0
config *.terminal[25].mob.centerLatitude 40.694
config *.terminal[25].mob.centerLongitude 30.400
config *.terminal[26].mob.radius 0.0
config *.terminal[26].mob.centerLatitude 37.066
config *.terminal[26].mob.centerLongitude 37.383
config *.terminal[27].mob.radius 0.0
config *.terminal[27].mob.centerLatitude 64.836
config *.terminal[27].mob.centerLongitude -23.708
config *.terminal[28].mob.radius 0.0
config *.terminal[28].mob.centerLatitude 28.099
config *.terminal[28].mob.centerLongitude -17.113
config *.terminal[29].mob.radius 0.0
config *.terminal[29].mob.centerLatitude 34.921
config *.terminal[29].mob.centerLongitude 33.623
config **.numStations 3
config **.numStations 3
config *.station[0].mobility.latitude 55.752
config *.station[0].mobility.longitude 37.616
config *.station[0].cityName "\"Moscow\""
config *.station[0].groundStationId 7
config *.station[0].routerAddr "\"10.0.0.29\""
config *.station[0].serving "\"10.0.0.29\""
config *.station[1].mobility.latitude 28.652
config *.station[1].mobility.longitude 77.231
config *.station[1].cityName "\"Delhi\""
config *.station[1].groundStationId 11
config *.station[1].routerAddr "\"10.0.0.45\""
config *.station[1].serving "\"10.0.0.45\""
config *.station[2].mobility.latitude 25.35
config *.station[2].mobility.longitude 51.24
config *.station[2].cityName "\"Katar\""
config *.station[2].groundStationId 19
config *.station[2].routerAddr "\"10.0.0.77\""
config *.station[2].serving "\"10.0.0.77\""
config *.visualizer.canvasVisualizer.mediumVisualizer.typename ""
config *.visualizer.*.radioVisualizer.displayAntennaLobes true
config *.visualizer.*.dataLinkVisualizer.displayLinks true
config *.visualizer.*.mobilityVisualizer.displayMovementTrails true
config *.visualizer.*.mobilityVisualizer.movementTrailLineWidth 1
config *.visualizer.*.mobilityVisualizer.trailLength 3000
config **.ttxStart_max 30s
config **.ttxIdle_min 10s
config **.ttxIdle_max 25s
config **.Ntw 2
config **.Ntx 45
config **.ttwDuration 550s

vector 0 Florasat_Individual_Sats.satellite[0].dlkDSL.mac "Satellite Position when Repetition Received" ETV
vector 1 Florasat_Individual_Sats.satellite[0].dlkDSL.mac "Repetition Position for Node 358 at Satellite" ETV
vector 2 Florasat_Individual_Sats.satellite[0].dlkDSL.mac "All Nodes Repetition Generation Delay at Satellite" ETV
vector 3 Florasat_Individual_Sats.satellite[0].dlkDSL.mac "Repetition Generation Delay for Node 358 at Satellite" ETV
vector 4 Florasat_Individual_Sats.satellite[0].dlkDSL.mac "All Nodes Message Generation Delay at Satellite" ETV
vector 5 Florasat_Individual_Sats.satellite[0].dlkDSL.mac "Message Generation Delay for Node 358 at Satellite" ETV
vector 6 Florasat_Individual_Sats.satellite[0].net.packetHandler "packets received" ETV
vector 7 Florasat_Individual_Sats.satellite[0].net.packetHandler "dropped unroutable" ETV
vector 8 Florasat_Individual_Sats.satellite[0].net.packetHandler "packets dropped" ETV
vector 9 Florasat_Individual_Sats.satellite[0].dlkDSL.mac "Repetition Position for Node 103 at Satellite" ETV
vector 10 Florasat_Individual_Sats.satellite[0].dlkDSL.mac "Repetition Generation Delay for Node 103 at Satellite" ETV
vector 11 Florasat_Individual_Sats.satellite[0].dlkDSL.mac "Message Generation Delay for Node 103 at Satellite" ETV
vector 12 Florasat_Individual_Sats.satellite[0].dlkDSL.mac "Repetition Position for Node 58 at Satellite" ETV
vector 13 Florasat_Individual_Sats.satellite[0].dlkDSL.mac "Repetition Generation Delay for Node 58 at Satellite" ETV
vector 14 Florasat_Individual_Sats.satellite[0].dlkDSL.mac "Message Generation Delay for Node 58 at Satellite" ETV
vector 15 Florasat_Individual_Sats.satellite[0].dlkDSL.mac "Repetition Position for Node 223 at Satellite" ETV
vector 16 Florasat_Individual_Sats.satellite[0].dlkDSL.mac "Repetition Generation Delay for Node 223 at Satellite" ETV
vector 17 Florasat_Individual_Sats.satellite[0].dlkDSL.mac "Message Generation Delay for Node 223 at Satellite" ETV
vector 18 Florasat_Individual_Sats.satellite[0].dlkDSL.mac "Repetition Position for Node 463 at Satellite" ETV
vector 19 Florasat_Individual_Sats.satellite[0].dlkDSL.mac "Repetition Generation Delay for Node 463 at Satellite" ETV
vector 20 Florasat_Individual_Sats.satellite[0].dlkDSL.mac "Message Generation Delay for Node 463 at Satellite" ETV
vector 21 Florasat_Individual_Sats.satellite[0].dlkDSL.mac "Repetition Position for Node 253 at Satellite" ETV
vector 22 Florasat_Individual_Sats.satellite[0].dlkDSL.mac "Repetition Generation Delay for Node 253 at Satellite" ETV
vector 23 Florasat_Individual_Sats.satellite[0].dlkDSL.mac "Message Generation Delay for Node 253 at Satellite" ETV
vector 24 Florasat_Individual_Sats.satellite[0].dlkDSL.mac "Repetition Position for Node 388 at Satellite" ETV
vector 25 Florasat_Individual_Sats.satellite[0].dlkDSL.mac "Repetition Generation Delay for Node 388 at Satellite" ETV
vector 26 Florasat_Individual_Sats.satellite[0].dlkDSL.mac "Message Generation Delay for Node 388 at Satellite" ETV
vector 27 Florasat_Individual_Sats.satellite[0].dlkDSL.mac "Repetition Position for Node 343 at Satellite" ETV
vector 28 Florasat_Individual_Sats.satellite[0].dlkDSL.mac "Repetition Generation Delay for Node 343 at Satellite" ETV
vector 29 Florasat_Individual_Sats.satellite[0].dlkDSL.mac "Message Generation Delay for Node 343 at Satellite" ETV
vector 30 Florasat_Individual_Sats.satellite[0].dlkDSL.mac "Repetition Position for Node 403 at Satellite" ETV
vector 31 Florasat_Individual_Sats.satellite[0].dlkDSL.mac "Repetition Generation Delay for Node 403 at Satellite" ETV
vector 32 Florasat_Individual_Sats.satellite[0].dlkDSL.mac "Message Generation Delay for Node 403 at Satellite" ETV
vector 33 Florasat_Individual_Sats.satellite[0].dlkDSL.mac "Repetition Position for Node 193 at Satellite" ETV
vector 34 Florasat_Individual_Sats.satellite[0].dlkDSL.mac "Repetition Generation Delay for Node 193 at Satellite" ETV
vector 35 Florasat_Individual_Sats.satellite[0].dlkDSL.mac "Message Generation Delay for Node 193 at Satellite" ETV
vector 36 Florasat_Individual_Sats.satellite[0].dlkDSL.mac "Repetition Position for Node 268 at Satellite" ETV
vector 37 Florasat_Individual_Sats.satellite[0].dlkDSL.mac "Repetition Generation Delay for Node 268 at Satellite" ETV
vector 38 Florasat_Individual_Sats.satellite[0].dlkDSL.mac "Message Generation Delay for Node 268 at Satellite" ETV
vector 39 Florasat_Individual_Sats.satellite[0].dlkDSL.mac "Repetition Position for Node 328 at Satellite" ETV
vector 40 Florasat_Individual_Sats.satellite[0].dlkDSL.mac "Repetition Generation Delay for Node 328 at Satellite" ETV
vector 41 Florasat_Individual_Sats.satellite[0].dlkDSL.mac "Message Generation Delay for Node 328 at Satellite" ETV
vector 42 Florasat_Individual_Sats.satellite[0].dlkDSL.mac "Repetition Position for Node 88 at Satellite" ETV
vector 43 Florasat_Individual_Sats.satellite[0].dlkDSL.mac "Repetition Generation Delay for Node 88 at Satellite" ETV
vector 44 Florasat_Individual_Sats.satellite[0].dlkDSL.mac "Message Generation Delay for Node 88 at Satellite" ETV
vector 45 Florasat_Individual_Sats.satellite[0].dlkDSL.mac "Repetition Position for Node 313 at Satellite" ETV
vector 46 Florasat_Individual_Sats.satellite[0].dlkDSL.mac "Repetition Generation Delay for Node 313 at Satellite" ETV
vector 47 Florasat_Individual_Sats.satellite[0].dlkDSL.mac "Message Generation Delay for Node 313 at Satellite" ETV
vector 48 Florasat_Individual_Sats.satellite[0].dlkDSL.mac "Repetition Position for Node 208 at Satellite" ETV
vector 49 Florasat_Individual_Sats.satellite[0].dlkDSL.mac "Repetition Generation Delay for Node 208 at Satellite" ETV
vector 50 Florasat_Individual_Sats.satellite[0].dlkDSL.mac "Message Generation Delay for Node 208 at Satellite" ETV
vector 51 Florasat_Individual_Sats.satellite[0].dlkDSL.mac "Repetition Position for Node 73 at Satellite" ETV
vector 52 Florasat_Individual_Sats.satellite[0].dlkDSL.mac "Repetition Generation Delay for Node 73 at Satellite" ETV
vector 53 Florasat_Individual_Sats.satellite[0].dlkDSL.mac "Message Generation Delay for Node 73 at Satellite" ETV
vector 54 Florasat_Individual_Sats.satellite[0].dlkDSL.mac "Repetition Position for Node 418 at Satellite" ETV
vector 55 Florasat_Individual_Sats.satellite[0].dlkDSL.mac "Repetition Generation Delay for Node 418 at Satellite" ETV
vector 56 Florasat_Individual_Sats.satellite[0].dlkDSL.mac "Message Generation Delay for Node 418 at Satellite" ETV
vector 57 Florasat_Individual_Sats.satellite[0].dlkDSL.mac "Repetition Position for Node 433 at Satellite" ETV
vector 58 Florasat_Individual_Sats.satellite[0].dlkDSL.mac "Repetition Generation Delay for Node 433 at Satellite" ETV
vector 59 Florasat_Individual_Sats.satellite[0].dlkDSL.mac "Message Generation Delay for Node 433 at Satellite" ETV
vector 60 Florasat_Individual_Sats.satellite[0].dlkDSL.mac "Repetition Position for Node 238 at Satellite" ETV
vector 61 Florasat_Individual_Sats.satellite[0].dlkDSL.mac "Repetition Generation Delay for Node 238 at Satellite" ETV
vector 62 Florasat_Individual_Sats.satellite[0].dlkDSL.mac "Message Generation Delay for Node 238 at Satellite" ETV
vector 63 Florasat_Individual_Sats.satellite[0].dlkDSL.mac "Repetition Position for Node 133 at Satellite" ETV
vector 64 Florasat_Individual_Sats.satellite[0].dlkDSL.mac "Repetition Generation Delay for Node 133 at Satellite" ETV
vector 65 Florasat_Individual_Sats.satellite[0].dlkDSL.mac "Message Generation Delay for Node 133 at Satellite" ETV
vector 66 Florasat_Individual_Sats.satellite[0].dlkDSL.mac "Repetition Position for Node 298 at Satellite" ETV
vector 67 Florasat_Individual_Sats.satellite[0].dlkDSL.mac "Repetition Generation Delay for Node 298 at Satellite" ETV
vector 68 Florasat_Individual_Sats.satellite[0].dlkDSL.mac "Message Generation Delay for Node 298 at Satellite" ETV
vector 69 Florasat_Individual_Sats.satellite[0].dlkDSL.mac "Repetition Position for Node 373 at Satellite" ETV
vector 70 Florasat_Individual_Sats.satellite[0].dlkDSL.mac "Repetition Generation Delay for Node 373 at Satellite" ETV
vector 71 Florasat_Individual_Sats.satellite[0].dlkDSL.mac "Message Generation Delay for Node 373 at Satellite" ETV
vector 72 Florasat_Individual_Sats.satellite[0].dlkDSL.mac "Repetition Position for Node 118 at Satellite" ETV
vector 73 Florasat_Individual_Sats.satellite[0].dlkDSL.mac "Repetition Generation Delay for Node 118 at Satellite" ETV
vector 74 Florasat_Individual_Sats.satellite[0].dlkDSL.mac "Message Generation Delay for Node 118 at Satellite" ETV
vector 75 Florasat_Individual_Sats.satellite[0].dlkDSL.mac "Repetition Position for Node 283 at Satellite" ETV
vector 76 Florasat_Individual_Sats.satellite[0].dlkDSL.mac "Repetition Generation Delay for Node 283 at Satellite" ETV
vector 77 Florasat_Individual_Sats.satellite[0].dlkDSL.mac "Message Generation Delay for Node 283 at Satellite" ETV
vector 78 Florasat_Individual_Sats.satellite[0].dlkDSL.mac "Repetition Position for Node 148 at Satellite" ETV
vector 79 Florasat_Individual_Sats.satellite[0].dlkDSL.mac "Repetition Generation Delay for Node 148 at Satellite" ETV
vector 80 Florasat_Individual_Sats.satellite[0].dlkDSL.mac "Message Generation Delay for Node 148 at Satellite" ETV
vector 81 Florasat_Individual_Sats.satellite[0].dlkDSL.mac "Repetition Position for Node 493 at Satellite" ETV
vector 82 Florasat_Individual_Sats.satellite[0].dlkDSL.mac "Repetition Generation Delay for Node 493 at Satellite" ETV
vector 83 Florasat_Individual_Sats.satellite[0].dlkDSL.mac "Message Generation Delay for Node 493 at Satellite" ETV
0	18632 4280 143 4324 7.86909151816 485.50742436298 161 180 180 28980 5216400
1	22912 341 143 3297 7.86909151816 268.81718376762 13 180 180 2340 421200
2	23253 6166 143 4324 7.86909151816 485.50742436298 161 6.86909151816 484.50742436298 33149.617145665 8467068.7916269
3	29419 490 143 3297 7.86909151816 268.81718376762 13 6.86909151816 267.81718376762 1926.0870642875 369238.23198145
4	29909 971 143 3423 7.86909151816 284.42981548085 26 6.86909151816 283.42981548085 3163.7845648729 554120.61668203
5	30880 34 143 143 7.86909151816 7.86909151816 1 6.86909151816 6.86909151816 6.86909151816 47.184418284858
6	30914 4172 144 4325 7.86909151816 485.50742436298 161 1 161 13041 1404081
7	35086 4172 144 4325 7.86909151816 485.50742436298 161 1 161 13041 1404081
8	39258 4172 144 4325 7.86909151816 485.50742436298 161 1 161 13041 1404081
9	43430 106 343 2885 31.60427572614 240.25828334794 4 180 180 720 129600
10	43536 157 343 2885 31.60427572614 240.25828334794 4 30.60427572614 239.25828334794 626.30310500764 121955.0221812
11	43693 37 343 343 31.60427572614 31.60427572614 1 30.60427572614 30.60427572614 30.60427572614 936.6216927216
12	43730 246 348 3448 32.10012418082 289.32541880154 9 180 180 1620 291600
13	43976 351 348 3448 32.10012418082 289.32541880154 9 31.10012418082 288.32541880154 1335.7579598688 267636.09070823
14	44327 37 348 348 32.10012418082 32.10012418082 1 31.10012418082 31.10012418082 31.10012418082 967.21772406242
15	44364 275 357 3841 33.14555962165 361.51324186301 10 180 180 1800 324000
16	44639 392 357 3841 33.14555962165 361.51324186301 10 32.14555962165 360.51324186301 2183.2089454461 598422.17244153
17	45031 37 357 357 33.14555962165 33.14555962165 1 32.14555962165 32.14555962165 32.14555962165 1033.3370033891
18	45068 273 403 3220 37.58836602037 259.93264876016 10 180 180 1800 324000
19	45341 389 403 3220 37.58836602037 259.93264876016 10 36.58836602037 258.93264876016 1279.3460166537 203549.15258562
20	45730 37 403 403 37.58836602037 37.58836602037 1 36.58836602037 36.58836602037 36.58836602037 1338.7085280406
21	45767 218 470 3287 44.1793557635 268.21130041442 8 180 180 1440 259200
22	45985 310 470 3287 44.1793557635 268.21130041442 8 43.1793557635 267.21130041442 1347.1096827736 275109.41056452
23	46295 35 470 470 44.1793557635 44.1793557635 1 43.1793557635 43.1793557635 43.1793557635 1864.4567641509
24	46330 163 481 3434 45.35184878217 286.8952519569 6 180 180 1080 194400
25	46493 232 481 3434 45.35184878217 286.8952519569 6 44.35184878217 285.8952519569 1009.3886542575 216674.09436796
26	46725 37 481 481 45.35184878217 45.35184878217 1 44.35184878217 44.35184878217 44.35184878217 1967.0864903965
27	46762 301 753 2822 62.96654461397 232.69352785407 11 180 180 1980 356400
28	47063 428 753 2822 62.96654461397 232.69352785407 11 61.96654461397 231.69352785407 1625.4316532715 271768.99193597
29	47491 37 753 753 62.96654461397 62.96654461397 1 61.96654461397 61.96654461397 61.96654461397 3839.8526513951
30	47528 54 775 1885 65.78764709624 156.18796638426 2 180 180 360 64800
31	47582 77 775 1885 65.78764709624 156.18796638426 2 64.78764709624 155.18796638426 219.9756134805 28280.744126749
32	47659 37 775 775 65.78764709624 65.78764709624 1 64.78764709624 64.78764709624 64.78764709624 4197.4392162669
33	47696 303 941 3868 80.32285953749 368.65678174648 11 180 180 1980 356400
34	47999 431 941 3868 80.32285953749 368.65678174648 11 79.32285953749 367.65678174648 2819.6314844212 796197.83605429
35	48430 37 941 941 80.32285953749 80.32285953749 1 79.32285953749 79.32285953749 79.32285953749 6292.1160452044
36	48467 82 991 2722 87.77704015005 225.71352973094 3 180 180 540 97200
37	48549 117 991 2722 87.77704015005 225.71352973094 3 86.77704015005 224.71352973094 434.76511709378 73223.03913186
38	48666 37 991 991 87.77704015005 87.77704015005 1 86.77704015005 86.77704015005 86.77704015005 7530.2546972034
39	48703 305 1052 3349 92.95290196541 273.24774609872 11 180 180 1980 356400
40	49008 434 1052 3349 92.95290196541 273.24774609872 11 91.95290196541 272.24774609872 2035.0190465632 413610.12053177
41	49442 38 1052 1052 92.95290196541 92.95290196541 1 91.95290196541 91.95290196541 91.95290196541 8455.3361798603
42	49480 221 1113 3216 99.4583067076 259.78607139195 8 180 180 1440 259200
43	49701 314 1113 3216 99.4583067076 259.78607139195 8 98.4583067076 258.78607139195 1504.1387057269 307825.31305278
44	50015 36 1113 1113 99.4583067076 99.4583067076 1 98.4583067076 98.4583067076 98.4583067076 9694.0381597278
45	50051 195 1225 3165 101.08339313049 255.3428732078 7 180 180 1260 226800
46	50246 278 1225 3165 101.08339313049 255.3428732078 7 100.08339313049 254.3428732078 1364.927891214 281670.90417612
47	50524 40 1225 1225 101.08339313049 101.08339313049 1 100.08339313049 100.08339313049 100.08339313049 10016.685580512
48	50564 111 1311 3116 109.05167436337 251.17542491055 4 180 180 720 129600
49	50675 158 1311 3116 109.05167436337 251.17542491055 4 108.05167436337 250.17542491055 709.04825679139 137355.04817276
50	50833 40 1311 1311 109.05167436337 109.05167436337 1 108.05167436337 108.05167436337 108.05167436337 11675.164332728
51	50873 167 1463 3390 125.27123397908 280.77995142776 6 180 180 1080 194400
52	51040 238 1463 3390 125.27123397908 280.77995142776 6 124.27123397908 279.77995142776 1164.1868947638 241574.42355133
53	51278 40 1463 1463 125.27123397908 125.27123397908 1 124.27123397908 124.27123397908 124.27123397908 15443.339594683
54	51318 224 1481 4268 128.11818388116 462.55490932905 8 180 180 1440 259200
55	51542 320 1481 4268 128.11818388116 462.55490932905 8 127.11818388116 461.55490932905 2843.6902645898 1108781.0499925
56	51862 40 1481 1481 128.11818388116 128.11818388116 1 127.11818388116 127.11818388116 127.11818388116 16159.032673244
57	51902 84 2126 2918 178.43845896715 242.41140023632 3 180 180 540 97200
58	51986 120 2126 2918 178.43845896715 242.41140023632 3 177.43845896715 241.41140023632 614.15070641196 127906.29180505
59	52106 40 2126 2126 178.43845896715 178.43845896715 1 177.43845896715 177.43845896715 177.43845896715 31484.406720637
60	52146 224 2270 4324 191.70245436119 485.50742436298 8 180 180 1440 259200
61	52370 320 2270 4324 191.70245436119 485.50742436298 8 190.70245436119 484.50742436298 3078.0500566029 1264028.5009784
62	52690 40 2270 2270 191.70245436119 191.70245436119 1 190.70245436119 190.70245436119 190.70245436119 36367.426099382
63	52730 56 2527 2944 206.14688366297 243.42602212558 2 180 180 360 64800
64	52786 80 2527 2944 206.14688366297 243.42602212558 2 205.14688366297 242.42602212558 447.57290578855 100855.62008026
65	52866 40 2527 2527 206.14688366297 206.14688366297 1 205.14688366297 205.14688366297 205.14688366297 42085.243876628
66	52906 28 2538 2538 206.84180910447 206.84180910447 1 180 180 180 32400
67	52934 40 2538 2538 206.84180910447 206.84180910447 1 205.84180910447 205.84180910447 205.84180910447 42370.850375401
68	52974 40 2538 2538 206.84180910447 206.84180910447 1 205.84180910447 205.84180910447 205.84180910447 42370.850375401
69	53014 196 2566 3723 209.23707043849 348.81206319882 7 180 180 1260 226800
70	53210 280 2566 3723 209.23707043849 348.81206319882 7 208.23707043849 347.81206319882 2042.3856803384 609042.26105006
71	53490 40 2566 2566 209.23707043849 209.23707043849 1 208.23707043849 208.23707043849 208.23707043849 43362.677504805
72	53530 112 2712 3472 224.15975954095 294.25603950807 4 180 180 720 129600
73	53642 160 2712 3472 224.15975954095 294.25603950807 4 223.15975954095 293.25603950807 1028.8344123858 267857.49656366
74	53802 40 2712 2712 224.15975954095 224.15975954095 1 223.15975954095 223.15975954095 223.15975954095 49800.278278375
75	53842 83 2818 3315 232.64450611256 270.4021521128 3 180 180 540 97200
76	53925 118 2818 3315 232.64450611256 270.4021521128 3 231.64450611256 269.4021521128 750.78000317433 188603.44035454
77	54043 40 2818 2818 232.64450611256 232.64450611256 1 231.64450611256 231.64450611256 231.64450611256 53659.177212132
78	54083 28 3330 3330 271.55540016657 271.55540016657 1 180 180 180 32400
79	54111 40 3330 3330 271.55540016657 271.55540016657 1 270.55540016657 270.55540016657 270.55540016657 73200.224559293
80	54151 40 3330 3330 271.55540016657 271.55540016657 1 270.55540016657 270.55540016657 270.55540016657 73200.224559293
81	54191 28 3423 3423 284.42981548085 284.42981548085 1 180 180 180 32400
82	54219 40 3423 3423 284.42981548085 284.42981548085 1 283.42981548085 283.42981548085 283.42981548085 80332.460303509
83	54259 40 3423 3423 284.42981548085 284.42981548085 1 283.42981548085 283.42981548085 283.42981548085 80332.460303509

