file 55314 1779838384                                           
version 3
run General-4-20260527-01:33:00-720927
attr configname General
attr datetime 20260527-01:33:00
attr datetimef 20260527-013300
attr experiment General
attr inifile Test_MLModel_1.ini
attr iterationvars $0=63029
attr iterationvarsd 63029
attr iterationvarsf 63029-
attr measurement $0=63029
attr network Florasat.Test_Individual.Florasat_Individual_Sats
attr processid 720927
attr repetition 4
attr replication #4
attr resultdir results
attr runnumber 4
attr seedset 4
config *.satellite[0].NoradModule.raan 185
config *.stats_altitude 670
config *.stats_raan 185
config image-path ../../images:../../../../samples/inet4.5_2/images
config network Florasat.Test_Individual.Florasat_Individual_Sats
config rng-class cMersenneTwister
config *.**.result-recording-modes -
config **.result-recording-modes -
config **.statistic-recording true
config **.scalar-recording true
config **.vector-recording true
config **.vector-record-eventnumbers true
config repeat 10
config seed-0-mt 63029
config sim-time-limit 749s
config simtime-resolution -11
config **.stats_altitude 670
config **.stats_raan 185
config *.radioMedium.backgroundNoise.power -110dBm
config *.radioMedium.mediumLimitCache.centerFrequency 868MHz
config *.radioMedium.mediumLimitCache.maxTransmissionDuration 4s
config *.radioMedium.mediumLimitCache.minInterferenceTime 0s
config **.numSatellites 1
config *.satellite[*].mobilityType "\"Sat_Mob_SatelliteMobility_Standalone\""
config *.satellite[*].noradModuleType "\"Sat_Mob_NoradA\""
config **.satellite[*].**.initFromDisplayString false
config *.satellite[*].mobility.faceForward true
config *.satellite[*].mobility.updateInterval 20s
config *.satellite[*].NoradModule.satName "\"FLoRaSat\""
config *.satellite[*].NoradModule.satIndex -1
config *.satellite[*].NoradModule.baseYear 20
config *.satellite[*].NoradModule.baseDay 1.5
config *.satellite[*].NoradModule.planes 1
config *.satellite[*].NoradModule.satPerPlane 1
config *.satellite[*].NoradModule.eccentricity 0.000001
config *.satellite[*].NoradModule.inclination 98
config *.satellite[*].NoradModule.altitude 670
config *.satellite[0].NoradModule.raan 185
config *.satellite[0].NoradModule.meanAnomaly 195
config *.satellite[*].phyDSL.radio.receiver.enableCollisionOverlap true
config *.satellite[*].phyDSL.radio.receiver.minCollisionOverlap 0s
config *.satellite[*].phyDSL.radio.antenna.typename ConstantGainAntenna
config *.satellite[*].phyDSL.radio.antenna.mobilityModule "\"^.^.^.mobility\""
config *.satellite[*].phyISL.radio.antenna.mobilityModule "\"^.^.^.mobility\""
config *.satellite[*].phyGSL.radio.antenna.mobilityModule "\"^.^.^.mobility\""
config *.satellite[*].phyDSL.radio.antenna.gain 12dB
config *.satellite[*].net.routingType "\"Null_Routing\""
config *.terminal[*].net.routingType "\"Ter_Null_Routing\""
config *.**.numGroundLinks 40
config *.satellite[*].**.interfaceTableModule "\"\""
config **.radioMedium.typename LoRaMedium
config **.radioMedium.analogModel.typename LoRaAnalogModel
config **.intraPlaneIslDisabled false
config **.interPlaneIslDisabled false
config **.numTerminals 30
config *.terminal[*].phy.radio.antenna.mobilityModule "\"^.^.^.mob\""
config *.terminal[*].dlk.mac.interfaceTableModule "\"\""
config *.terminal[*].dlk.energySourceModule "\"\""
config *.terminal[*].dlk.mac.LoRaTP "intuniform(12, 14)"
config *.terminal[*].dlk.mac.LoRaSF "intuniform(10, 12)"
config *.terminal[*].dlk.mac.useMLBox true
config *.terminal[*].dlk.mac.mlBox.modelPath "\"/home/ylnner/Documents/omnet++/omnetpp-6.3.0/projects/florasat_v4_ult_routing/simulations/Test_Individual/mlmodels/transformer_scripted.pt\""
config **.numberOfPacketsToSend 0
config **.timeToFirstPacket 1s
config **.timeToNextPacket 50s
config *.terminal[0].mob.radius 0.0
config *.terminal[0].mob.centerLatitude 54.978
config *.terminal[0].mob.centerLongitude -1.617
config *.terminal[1].mob.radius 0.0
config *.terminal[1].mob.centerLatitude 52.630
config *.terminal[1].mob.centerLongitude -1.139
config *.terminal[2].mob.radius 0.0
config *.terminal[2].mob.centerLatitude 52.612
config *.terminal[2].mob.centerLongitude -6.295
config *.terminal[3].mob.radius 0.0
config *.terminal[3].mob.centerLatitude 47.243
config *.terminal[3].mob.centerLongitude 6.024
config *.terminal[4].mob.radius 0.0
config *.terminal[4].mob.centerLatitude 43.610
config *.terminal[4].mob.centerLongitude 3.876
config *.terminal[5].mob.radius 0.0
config *.terminal[5].mob.centerLatitude 49.443
config *.terminal[5].mob.centerLongitude 1.099
config *.terminal[6].mob.radius 0.0
config *.terminal[6].mob.centerLatitude 37.992
config *.terminal[6].mob.centerLongitude -1.130
config *.terminal[7].mob.radius 0.0
config *.terminal[7].mob.centerLatitude 40.965
config *.terminal[7].mob.centerLongitude -5.664
config *.terminal[8].mob.radius 0.0
config *.terminal[8].mob.centerLatitude 40.657
config *.terminal[8].mob.centerLongitude -7.914
config *.terminal[9].mob.radius 0.0
config *.terminal[9].mob.centerLatitude 51.340
config *.terminal[9].mob.centerLongitude 12.373
config *.terminal[10].mob.radius 0.0
config *.terminal[10].mob.centerLatitude 51.455
config *.terminal[10].mob.centerLongitude 7.011
config *.terminal[11].mob.radius 0.0
config *.terminal[11].mob.centerLatitude 49.452
config *.terminal[11].mob.centerLongitude 11.076
config *.terminal[12].mob.radius 0.0
config *.terminal[12].mob.centerLatitude 43.769
config *.terminal[12].mob.centerLongitude 11.255
config *.terminal[13].mob.radius 0.0
config *.terminal[13].mob.centerLatitude 41.117
config *.terminal[13].mob.centerLongitude 16.871
config *.terminal[14].mob.radius 0.0
config *.terminal[14].mob.centerLatitude 52.132
config *.terminal[14].mob.centerLongitude 5.291
config *.terminal[15].mob.radius 0.0
config *.terminal[15].mob.centerLatitude 50.411
config *.terminal[15].mob.centerLongitude 4.444
config *.terminal[16].mob.radius 0.0
config *.terminal[16].mob.centerLatitude 47.559
config *.terminal[16].mob.centerLongitude 7.588
config *.terminal[17].mob.radius 0.0
config *.terminal[17].mob.centerLatitude 55.403
config *.terminal[17].mob.centerLongitude 10.402
config *.terminal[18].mob.radius 0.0
config *.terminal[18].mob.centerLatitude 59.858
config *.terminal[18].mob.centerLongitude 17.638
config *.terminal[19].mob.radius 0.0
config *.terminal[19].mob.centerLatitude 60.451
config *.terminal[19].mob.centerLongitude 22.266
config *.terminal[20].mob.radius 0.0
config *.terminal[20].mob.centerLatitude 56.325
config *.terminal[20].mob.centerLongitude 22.349
config *.terminal[21].mob.radius 0.0
config *.terminal[21].mob.centerLatitude 49.883
config *.terminal[21].mob.centerLongitude 18.568
config *.terminal[22].mob.radius 0.0
config *.terminal[22].mob.centerLatitude 47.531
config *.terminal[22].mob.centerLongitude 21.627
config *.terminal[23].mob.radius 0.0
config *.terminal[23].mob.centerLatitude 44.179
config *.terminal[23].mob.centerLongitude 28.649
config *.terminal[24].mob.radius 0.0
config *.terminal[24].mob.centerLatitude 45.327
config *.terminal[24].mob.centerLongitude 14.442
config *.terminal[25].mob.radius 0.0
config *.terminal[25].mob.centerLatitude 40.694
config *.terminal[25].mob.centerLongitude 30.400
config *.terminal[26].mob.radius 0.0
config *.terminal[26].mob.centerLatitude 37.066
config *.terminal[26].mob.centerLongitude 37.383
config *.terminal[27].mob.radius 0.0
config *.terminal[27].mob.centerLatitude 64.836
config *.terminal[27].mob.centerLongitude -23.708
config *.terminal[28].mob.radius 0.0
config *.terminal[28].mob.centerLatitude 28.099
config *.terminal[28].mob.centerLongitude -17.113
config *.terminal[29].mob.radius 0.0
config *.terminal[29].mob.centerLatitude 34.921
config *.terminal[29].mob.centerLongitude 33.623
config **.numStations 3
config **.numStations 3
config *.station[0].mobility.latitude 55.752
config *.station[0].mobility.longitude 37.616
config *.station[0].cityName "\"Moscow\""
config *.station[0].groundStationId 7
config *.station[0].routerAddr "\"10.0.0.29\""
config *.station[0].serving "\"10.0.0.29\""
config *.station[1].mobility.latitude 28.652
config *.station[1].mobility.longitude 77.231
config *.station[1].cityName "\"Delhi\""
config *.station[1].groundStationId 11
config *.station[1].routerAddr "\"10.0.0.45\""
config *.station[1].serving "\"10.0.0.45\""
config *.station[2].mobility.latitude 25.35
config *.station[2].mobility.longitude 51.24
config *.station[2].cityName "\"Katar\""
config *.station[2].groundStationId 19
config *.station[2].routerAddr "\"10.0.0.77\""
config *.station[2].serving "\"10.0.0.77\""
config *.visualizer.canvasVisualizer.mediumVisualizer.typename ""
config *.visualizer.*.radioVisualizer.displayAntennaLobes true
config *.visualizer.*.dataLinkVisualizer.displayLinks true
config *.visualizer.*.mobilityVisualizer.displayMovementTrails true
config *.visualizer.*.mobilityVisualizer.movementTrailLineWidth 1
config *.visualizer.*.mobilityVisualizer.trailLength 3000
config **.ttxStart_max 30s
config **.ttxIdle_min 10s
config **.ttxIdle_max 25s
config **.Ntw 2
config **.Ntx 45
config **.ttwDuration 550s

vector 0 Florasat_Individual_Sats.satellite[0].dlkDSL.mac "Satellite Position when Repetition Received" ETV
vector 1 Florasat_Individual_Sats.satellite[0].dlkDSL.mac "Repetition Position for Node 343 at Satellite" ETV
vector 2 Florasat_Individual_Sats.satellite[0].dlkDSL.mac "All Nodes Repetition Generation Delay at Satellite" ETV
vector 3 Florasat_Individual_Sats.satellite[0].dlkDSL.mac "Repetition Generation Delay for Node 343 at Satellite" ETV
vector 4 Florasat_Individual_Sats.satellite[0].dlkDSL.mac "All Nodes Message Generation Delay at Satellite" ETV
vector 5 Florasat_Individual_Sats.satellite[0].dlkDSL.mac "Message Generation Delay for Node 343 at Satellite" ETV
vector 6 Florasat_Individual_Sats.satellite[0].net.packetHandler "packets received" ETV
vector 7 Florasat_Individual_Sats.satellite[0].net.packetHandler "dropped unroutable" ETV
vector 8 Florasat_Individual_Sats.satellite[0].net.packetHandler "packets dropped" ETV
vector 9 Florasat_Individual_Sats.satellite[0].dlkDSL.mac "Repetition Position for Node 58 at Satellite" ETV
vector 10 Florasat_Individual_Sats.satellite[0].dlkDSL.mac "Repetition Generation Delay for Node 58 at Satellite" ETV
vector 11 Florasat_Individual_Sats.satellite[0].dlkDSL.mac "Message Generation Delay for Node 58 at Satellite" ETV
vector 12 Florasat_Individual_Sats.satellite[0].dlkDSL.mac "Repetition Position for Node 313 at Satellite" ETV
vector 13 Florasat_Individual_Sats.satellite[0].dlkDSL.mac "Repetition Generation Delay for Node 313 at Satellite" ETV
vector 14 Florasat_Individual_Sats.satellite[0].dlkDSL.mac "Message Generation Delay for Node 313 at Satellite" ETV
vector 15 Florasat_Individual_Sats.satellite[0].dlkDSL.mac "Repetition Position for Node 358 at Satellite" ETV
vector 16 Florasat_Individual_Sats.satellite[0].dlkDSL.mac "Repetition Generation Delay for Node 358 at Satellite" ETV
vector 17 Florasat_Individual_Sats.satellite[0].dlkDSL.mac "Message Generation Delay for Node 358 at Satellite" ETV
vector 18 Florasat_Individual_Sats.satellite[0].dlkDSL.mac "Repetition Position for Node 283 at Satellite" ETV
vector 19 Florasat_Individual_Sats.satellite[0].dlkDSL.mac "Repetition Generation Delay for Node 283 at Satellite" ETV
vector 20 Florasat_Individual_Sats.satellite[0].dlkDSL.mac "Message Generation Delay for Node 283 at Satellite" ETV
vector 21 Florasat_Individual_Sats.satellite[0].dlkDSL.mac "Repetition Position for Node 73 at Satellite" ETV
vector 22 Florasat_Individual_Sats.satellite[0].dlkDSL.mac "Repetition Generation Delay for Node 73 at Satellite" ETV
vector 23 Florasat_Individual_Sats.satellite[0].dlkDSL.mac "Message Generation Delay for Node 73 at Satellite" ETV
vector 24 Florasat_Individual_Sats.satellite[0].dlkDSL.mac "Repetition Position for Node 328 at Satellite" ETV
vector 25 Florasat_Individual_Sats.satellite[0].dlkDSL.mac "Repetition Generation Delay for Node 328 at Satellite" ETV
vector 26 Florasat_Individual_Sats.satellite[0].dlkDSL.mac "Message Generation Delay for Node 328 at Satellite" ETV
vector 27 Florasat_Individual_Sats.satellite[0].dlkDSL.mac "Repetition Position for Node 88 at Satellite" ETV
vector 28 Florasat_Individual_Sats.satellite[0].dlkDSL.mac "Repetition Generation Delay for Node 88 at Satellite" ETV
vector 29 Florasat_Individual_Sats.satellite[0].dlkDSL.mac "Message Generation Delay for Node 88 at Satellite" ETV
vector 30 Florasat_Individual_Sats.satellite[0].dlkDSL.mac "Repetition Position for Node 193 at Satellite" ETV
vector 31 Florasat_Individual_Sats.satellite[0].dlkDSL.mac "Repetition Generation Delay for Node 193 at Satellite" ETV
vector 32 Florasat_Individual_Sats.satellite[0].dlkDSL.mac "Message Generation Delay for Node 193 at Satellite" ETV
vector 33 Florasat_Individual_Sats.satellite[0].dlkDSL.mac "Repetition Position for Node 268 at Satellite" ETV
vector 34 Florasat_Individual_Sats.satellite[0].dlkDSL.mac "Repetition Generation Delay for Node 268 at Satellite" ETV
vector 35 Florasat_Individual_Sats.satellite[0].dlkDSL.mac "Message Generation Delay for Node 268 at Satellite" ETV
vector 36 Florasat_Individual_Sats.satellite[0].dlkDSL.mac "Repetition Position for Node 373 at Satellite" ETV
vector 37 Florasat_Individual_Sats.satellite[0].dlkDSL.mac "Repetition Generation Delay for Node 373 at Satellite" ETV
vector 38 Florasat_Individual_Sats.satellite[0].dlkDSL.mac "Message Generation Delay for Node 373 at Satellite" ETV
vector 39 Florasat_Individual_Sats.satellite[0].dlkDSL.mac "Repetition Position for Node 178 at Satellite" ETV
vector 40 Florasat_Individual_Sats.satellite[0].dlkDSL.mac "Repetition Generation Delay for Node 178 at Satellite" ETV
vector 41 Florasat_Individual_Sats.satellite[0].dlkDSL.mac "Message Generation Delay for Node 178 at Satellite" ETV
vector 42 Florasat_Individual_Sats.satellite[0].dlkDSL.mac "Repetition Position for Node 298 at Satellite" ETV
vector 43 Florasat_Individual_Sats.satellite[0].dlkDSL.mac "Repetition Generation Delay for Node 298 at Satellite" ETV
vector 44 Florasat_Individual_Sats.satellite[0].dlkDSL.mac "Message Generation Delay for Node 298 at Satellite" ETV
vector 45 Florasat_Individual_Sats.satellite[0].dlkDSL.mac "Repetition Position for Node 118 at Satellite" ETV
vector 46 Florasat_Individual_Sats.satellite[0].dlkDSL.mac "Repetition Generation Delay for Node 118 at Satellite" ETV
vector 47 Florasat_Individual_Sats.satellite[0].dlkDSL.mac "Message Generation Delay for Node 118 at Satellite" ETV
vector 48 Florasat_Individual_Sats.satellite[0].dlkDSL.mac "Repetition Position for Node 223 at Satellite" ETV
vector 49 Florasat_Individual_Sats.satellite[0].dlkDSL.mac "Repetition Generation Delay for Node 223 at Satellite" ETV
vector 50 Florasat_Individual_Sats.satellite[0].dlkDSL.mac "Message Generation Delay for Node 223 at Satellite" ETV
vector 51 Florasat_Individual_Sats.satellite[0].dlkDSL.mac "Repetition Position for Node 133 at Satellite" ETV
vector 52 Florasat_Individual_Sats.satellite[0].dlkDSL.mac "Repetition Generation Delay for Node 133 at Satellite" ETV
vector 53 Florasat_Individual_Sats.satellite[0].dlkDSL.mac "Message Generation Delay for Node 133 at Satellite" ETV
vector 54 Florasat_Individual_Sats.satellite[0].dlkDSL.mac "Repetition Position for Node 208 at Satellite" ETV
vector 55 Florasat_Individual_Sats.satellite[0].dlkDSL.mac "Repetition Generation Delay for Node 208 at Satellite" ETV
vector 56 Florasat_Individual_Sats.satellite[0].dlkDSL.mac "Message Generation Delay for Node 208 at Satellite" ETV
vector 57 Florasat_Individual_Sats.satellite[0].dlkDSL.mac "Repetition Position for Node 148 at Satellite" ETV
vector 58 Florasat_Individual_Sats.satellite[0].dlkDSL.mac "Repetition Generation Delay for Node 148 at Satellite" ETV
vector 59 Florasat_Individual_Sats.satellite[0].dlkDSL.mac "Message Generation Delay for Node 148 at Satellite" ETV
vector 60 Florasat_Individual_Sats.satellite[0].dlkDSL.mac "Repetition Position for Node 493 at Satellite" ETV
vector 61 Florasat_Individual_Sats.satellite[0].dlkDSL.mac "Repetition Generation Delay for Node 493 at Satellite" ETV
vector 62 Florasat_Individual_Sats.satellite[0].dlkDSL.mac "Message Generation Delay for Node 493 at Satellite" ETV
vector 63 Florasat_Individual_Sats.satellite[0].dlkDSL.mac "Repetition Position for Node 238 at Satellite" ETV
vector 64 Florasat_Individual_Sats.satellite[0].dlkDSL.mac "Repetition Generation Delay for Node 238 at Satellite" ETV
vector 65 Florasat_Individual_Sats.satellite[0].dlkDSL.mac "Message Generation Delay for Node 238 at Satellite" ETV
vector 66 Florasat_Individual_Sats.satellite[0].dlkDSL.mac "Repetition Position for Node 103 at Satellite" ETV
vector 67 Florasat_Individual_Sats.satellite[0].dlkDSL.mac "Repetition Generation Delay for Node 103 at Satellite" ETV
vector 68 Florasat_Individual_Sats.satellite[0].dlkDSL.mac "Message Generation Delay for Node 103 at Satellite" ETV
vector 69 Florasat_Individual_Sats.satellite[0].dlkDSL.mac "Repetition Position for Node 253 at Satellite" ETV
vector 70 Florasat_Individual_Sats.satellite[0].dlkDSL.mac "Repetition Generation Delay for Node 253 at Satellite" ETV
vector 71 Florasat_Individual_Sats.satellite[0].dlkDSL.mac "Message Generation Delay for Node 253 at Satellite" ETV
vector 72 Florasat_Individual_Sats.satellite[0].dlkDSL.mac "Repetition Position for Node 403 at Satellite" ETV
vector 73 Florasat_Individual_Sats.satellite[0].dlkDSL.mac "Repetition Generation Delay for Node 403 at Satellite" ETV
vector 74 Florasat_Individual_Sats.satellite[0].dlkDSL.mac "Message Generation Delay for Node 403 at Satellite" ETV
vector 75 Florasat_Individual_Sats.satellite[0].dlkDSL.mac "Repetition Position for Node 163 at Satellite" ETV
vector 76 Florasat_Individual_Sats.satellite[0].dlkDSL.mac "Repetition Generation Delay for Node 163 at Satellite" ETV
vector 77 Florasat_Individual_Sats.satellite[0].dlkDSL.mac "Message Generation Delay for Node 163 at Satellite" ETV
vector 78 Florasat_Individual_Sats.satellite[0].dlkDSL.mac "Repetition Position for Node 418 at Satellite" ETV
vector 79 Florasat_Individual_Sats.satellite[0].dlkDSL.mac "Repetition Generation Delay for Node 418 at Satellite" ETV
vector 80 Florasat_Individual_Sats.satellite[0].dlkDSL.mac "Message Generation Delay for Node 418 at Satellite" ETV
vector 81 Florasat_Individual_Sats.satellite[0].dlkDSL.mac "Repetition Position for Node 388 at Satellite" ETV
vector 82 Florasat_Individual_Sats.satellite[0].dlkDSL.mac "Repetition Generation Delay for Node 388 at Satellite" ETV
vector 83 Florasat_Individual_Sats.satellite[0].dlkDSL.mac "Message Generation Delay for Node 388 at Satellite" ETV
0	18632 4407 150 4370 2.82851628022 485.95374938913 165 180 180 29700 5346000
1	23039 366 150 3271 2.82851628022 257.06974409516 14 180 180 2520 453600
2	23405 6354 150 4370 2.82851628022 485.95374938913 165 1.82851628022 484.95374938913 34101.856172284 8682437.0374311
3	29759 526 150 3271 2.82851628022 257.06974409516 14 1.82851628022 256.06974409516 1750.3189141612 296244.99549597
4	30285 970 150 3416 2.82851628022 276.07587514774 26 1.82851628022 275.07587514774 2839.9147085041 467144.84501995
5	31255 34 150 150 2.82851628022 2.82851628022 1 1.82851628022 1.82851628022 1.82851628022 3.3434717870296
6	31289 4299 151 4371 2.82851628022 485.95374938913 165 1 165 13695 1511015
7	35588 4299 151 4371 2.82851628022 485.95374938913 165 1 165 13695 1511015
8	39887 4299 151 4371 2.82851628022 485.95374938913 165 1 165 13695 1511015
9	44186 131 174 2257 9.92182333701 182.88389181581 5 180 180 900 162000
10	44317 193 174 2257 9.92182333701 182.88389181581 5 8.92182333701 181.88389181581 604.762289934 93353.078192078
11	44510 35 174 174 9.92182333701 9.92182333701 1 8.92182333701 8.92182333701 8.92182333701 79.598931656816
12	44545 194 290 3615 23.25245504713 304.31555682775 7 180 180 1260 226800
13	44739 277 290 3615 23.25245504713 304.31555682775 7 22.25245504713 303.31555682775 1445.0920263508 351436.93070658
14	45016 37 290 290 23.25245504713 23.25245504713 1 22.25245504713 22.25245504713 22.25245504713 495.17175562454
15	45053 276 352 3391 29.47253358298 272.26454684376 10 180 180 1800 324000
16	45329 394 352 3391 29.47253358298 272.26454684376 10 28.47253358298 271.26454684376 1684.9581226256 343812.05911919
17	45723 37 352 352 29.47253358298 29.47253358298 1 28.47253358298 28.47253358298 28.47253358298 810.68516863392
18	45760 222 365 3488 30.72198084848 295.73206447939 8 180 180 1440 259200
19	45982 316 365 3488 30.72198084848 295.73206447939 8 29.72198084848 294.73206447939 1450.7577510789 321351.81089427
20	46298 37 365 365 30.72198084848 30.72198084848 1 29.72198084848 29.72198084848 29.72198084848 883.39614555741
21	46335 193 524 3218 44.68179713113 252.84695865929 7 180 180 1260 226800
22	46528 275 524 3218 44.68179713113 252.84695865929 7 43.68179713113 251.84695865929 1068.8603859059 192687.52319329
23	46803 37 524 524 44.68179713113 44.68179713113 1 43.68179713113 43.68179713113 43.68179713113 1908.0994006052
24	46840 331 555 3338 48.9774665941 265.14756633029 12 180 180 2160 388800
25	47171 471 555 3338 48.9774665941 265.14756633029 12 47.9774665941 264.14756633029 1969.4853310541 368347.99627693
26	47642 35 555 555 48.9774665941 48.9774665941 1 47.9774665941 47.9774665941 47.9774665941 2301.837300788
27	47677 193 573 3243 50.82609782405 255.28302972032 7 180 180 1260 226800
28	47870 275 573 3243 50.82609782405 255.28302972032 7 49.82609782405 254.28302972032 1152.455418776 221322.55365544
29	48145 37 573 573 50.82609782405 50.82609782405 1 49.82609782405 49.82609782405 49.82609782405 2482.6400243718
30	48182 250 667 3856 51.17879335864 354.99570126509 9 180 180 1620 291600
31	48432 357 667 3856 51.17879335864 354.99570126509 9 50.17879335864 353.99570126509 2314.6601037165 666004.65783149
32	48789 37 667 667 51.17879335864 51.17879335864 1 50.17879335864 50.17879335864 50.17879335864 2517.9113029291
33	48826 82 740 2755 59.08869238099 218.52672700646 3 180 180 540 97200
34	48908 117 740 2755 59.08869238099 218.52672700646 3 58.08869238099 217.52672700646 449.7751813012 81023.79581453
35	49025 37 740 740 59.08869238099 59.08869238099 1 58.08869238099 58.08869238099 58.08869238099 3374.2961825333
36	49062 306 833 3742 67.72948078921 348.61348536091 11 180 180 1980 356400
37	49368 437 833 3742 67.72948078921 348.61348536091 11 66.72948078921 347.61348536091 2579.2225732702 688977.44283723
38	49805 37 833 833 67.72948078921 67.72948078921 1 66.72948078921 66.72948078921 66.72948078921 4452.8236063975
39	49842 82 854 3225 70.40117421868 253.81135399901 3 180 180 540 97200
40	49924 117 854 3225 70.40117421868 253.81135399901 3 69.40117421868 252.81135399901 555.54000195807 123171.81369581
41	50041 37 854 854 70.40117421868 70.40117421868 1 69.40117421868 69.40117421868 69.40117421868 4816.5229829316
42	50078 223 1036 3982 89.09217994721 399.05378056285 8 180 180 1440 259200
43	50301 318 1036 3982 89.09217994721 399.05378056285 8 88.09217994721 398.05378056285 1672.7084258031 448601.27652151
44	50619 38 1036 1036 89.09217994721 89.09217994721 1 88.09217994721 88.09217994721 88.09217994721 7760.2321678516
45	50657 168 1299 3258 102.09458356549 256.39667717218 6 180 180 1080 194400
46	50825 240 1299 3258 102.09458356549 256.39667717218 6 101.09458356549 255.39667717218 1108.354951717 223046.31221557
47	51065 40 1299 1299 102.09458356549 102.09458356549 1 101.09458356549 101.09458356549 101.09458356549 10220.11482628
48	51105 336 1448 3904 117.78992846136 370.42575378777 12 180 180 2160 388800
49	51441 480 1448 3904 117.78992846136 370.42575378777 12 116.78992846136 369.42575378777 3014.807964534 840210.53712307
50	51921 40 1448 1448 117.78992846136 117.78992846136 1 116.78992846136 116.78992846136 116.78992846136 13639.88739001
51	51961 196 1618 3401 132.82411020475 272.60357028332 7 180 180 1260 226800
52	52157 280 1618 3401 132.82411020475 272.60357028332 7 131.82411020475 271.60357028332 1454.2116945903 319029.2217125
53	52437 40 1618 1618 132.82411020475 132.82411020475 1 131.82411020475 131.82411020475 131.82411020475 17377.596031274
54	52477 140 1802 3330 149.42278660893 264.17826869352 5 180 180 900 162000
55	52617 200 1802 3330 149.42278660893 264.17826869352 5 148.42278660893 263.17826869352 1012.4758111564 212398.38581013
56	52817 40 1802 1802 149.42278660893 149.42278660893 1 148.42278660893 148.42278660893 148.42278660893 22029.32358476
57	52857 112 1810 3397 150.32795025096 272.55479320828 4 180 180 720 129600
58	52969 160 1810 3397 150.32795025096 272.55479320828 4 149.32795025096 271.55479320828 773.12562747541 158223.13109893
59	53129 40 1810 1810 150.32795025096 150.32795025096 1 149.32795025096 149.32795025096 149.32795025096 22298.836726153
60	53169 110 1814 2656 150.80927246114 209.4263422883 4 180 180 720 129600
61	53279 156 1814 2656 150.80927246114 209.4263422883 4 149.80927246114 208.4263422883 713.03982718209 128964.92595365
62	53435 40 1814 1814 150.80927246114 150.80927246114 1 149.80927246114 149.80927246114 149.80927246114 22442.818115336
63	53475 250 1928 4370 153.70730765975 485.95374938913 9 180 180 1620 291600
64	53725 356 1928 4370 153.70730765975 485.95374938913 9 152.70730765975 484.95374938913 3401.0967273393 1401581.4691442
65	54081 40 1928 1928 153.70730765975 153.70730765975 1 152.70730765975 152.70730765975 152.70730765975 23319.52181269
66	54121 84 2007 2969 159.52880084042 238.16916226519 3 180 180 540 97200
67	54205 120 2007 2969 159.52880084042 238.16916226519 3 158.52880084042 237.16916226519 600.20024650756 123201.77614209
68	54325 40 2007 2007 159.52880084042 159.52880084042 1 158.52880084042 158.52880084042 158.52880084042 25131.380695902
69	54365 28 2142 2142 173.81991733311 173.81991733311 1 180 180 180 32400
70	54393 40 2142 2142 173.81991733311 173.81991733311 1 172.81991733311 172.81991733311 172.81991733311 29866.723827023
71	54433 40 2142 2142 173.81991733311 173.81991733311 1 172.81991733311 172.81991733311 172.81991733311 29866.723827023
72	54473 56 2682 2912 212.55869269583 232.80416970237 2 180 180 360 64800
73	54529 80 2682 2912 212.55869269583 232.80416970237 2 211.55869269583 231.80416970237 443.3628623982 98490.253546574
74	54609 40 2682 2682 212.55869269583 212.55869269583 1 211.55869269583 211.55869269583 211.55869269583 44757.080455169
75	54649 28 3092 3092 247.53490001722 247.53490001722 1 180 180 180 32400
76	54677 40 3092 3092 247.53490001722 247.53490001722 1 246.53490001722 246.53490001722 246.53490001722 60779.456926501
77	54717 40 3092 3092 247.53490001722 247.53490001722 1 246.53490001722 246.53490001722 246.53490001722 60779.456926501
78	54757 168 3304 4150 261.24759191757 425.91310858254 6 180 180 1080 194400
79	54925 240 3304 4150 261.24759191757 425.91310858254 6 260.24759191757 424.91310858254 2188.1532409501 814642.17260832
80	55165 40 3304 3304 261.24759191757 261.24759191757 1 260.24759191757 260.24759191757 260.24759191757 67728.809098894
81	55205 28 3416 3416 276.07587514774 276.07587514774 1 180 180 180 32400
82	55233 40 3416 3416 276.07587514774 276.07587514774 1 275.07587514774 275.07587514774 275.07587514774 75666.737088295
83	55273 40 3416 3416 276.07587514774 276.07587514774 1 275.07587514774 275.07587514774 275.07587514774 75666.737088295

