version 3
run General-5-20260527-01:33:04-720927
attr configname General
attr datetime 20260527-01:33:04
attr datetimef 20260527-013304
attr experiment General
attr inifile Test_MLModel_1.ini
attr iterationvars $0=88143
attr iterationvarsd 88143
attr iterationvarsf 88143-
attr measurement $0=88143
attr network Florasat.Test_Individual.Florasat_Individual_Sats
attr processid 720927
attr repetition 5
attr replication #5
attr resultdir results
attr runnumber 5
attr seedset 5
config *.satellite[0].NoradModule.raan 185
config *.stats_altitude 670
config *.stats_raan 185
config image-path ../../images:../../../../samples/inet4.5_2/images
config network Florasat.Test_Individual.Florasat_Individual_Sats
config rng-class cMersenneTwister
config *.**.result-recording-modes -
config **.result-recording-modes -
config **.statistic-recording true
config **.scalar-recording true
config **.vector-recording true
config **.vector-record-eventnumbers true
config repeat 10
config seed-0-mt 88143
config sim-time-limit 749s
config simtime-resolution -11
config **.stats_altitude 670
config **.stats_raan 185
config *.radioMedium.backgroundNoise.power -110dBm
config *.radioMedium.mediumLimitCache.centerFrequency 868MHz
config *.radioMedium.mediumLimitCache.maxTransmissionDuration 4s
config *.radioMedium.mediumLimitCache.minInterferenceTime 0s
config **.numSatellites 1
config *.satellite[*].mobilityType "\"Sat_Mob_SatelliteMobility_Standalone\""
config *.satellite[*].noradModuleType "\"Sat_Mob_NoradA\""
config **.satellite[*].**.initFromDisplayString false
config *.satellite[*].mobility.faceForward true
config *.satellite[*].mobility.updateInterval 20s
config *.satellite[*].NoradModule.satName "\"FLoRaSat\""
config *.satellite[*].NoradModule.satIndex -1
config *.satellite[*].NoradModule.baseYear 20
config *.satellite[*].NoradModule.baseDay 1.5
config *.satellite[*].NoradModule.planes 1
config *.satellite[*].NoradModule.satPerPlane 1
config *.satellite[*].NoradModule.eccentricity 0.000001
config *.satellite[*].NoradModule.inclination 98
config *.satellite[*].NoradModule.altitude 670
config *.satellite[0].NoradModule.raan 185
config *.satellite[0].NoradModule.meanAnomaly 195
config *.satellite[*].phyDSL.radio.receiver.enableCollisionOverlap true
config *.satellite[*].phyDSL.radio.receiver.minCollisionOverlap 0s
config *.satellite[*].phyDSL.radio.antenna.typename ConstantGainAntenna
config *.satellite[*].phyDSL.radio.antenna.mobilityModule "\"^.^.^.mobility\""
config *.satellite[*].phyISL.radio.antenna.mobilityModule "\"^.^.^.mobility\""
config *.satellite[*].phyGSL.radio.antenna.mobilityModule "\"^.^.^.mobility\""
config *.satellite[*].phyDSL.radio.antenna.gain 12dB
config *.satellite[*].net.routingType "\"Null_Routing\""
config *.terminal[*].net.routingType "\"Ter_Null_Routing\""
config *.**.numGroundLinks 40
config *.satellite[*].**.interfaceTableModule "\"\""
config **.radioMedium.typename LoRaMedium
config **.radioMedium.analogModel.typename LoRaAnalogModel
config **.intraPlaneIslDisabled false
config **.interPlaneIslDisabled false
config **.numTerminals 30
config *.terminal[*].phy.radio.antenna.mobilityModule "\"^.^.^.mob\""
config *.terminal[*].dlk.mac.interfaceTableModule "\"\""
config *.terminal[*].dlk.energySourceModule "\"\""
config *.terminal[*].dlk.mac.LoRaTP "intuniform(12, 14)"
config *.terminal[*].dlk.mac.LoRaSF "intuniform(10, 12)"
config *.terminal[*].dlk.mac.useMLBox true
config *.terminal[*].dlk.mac.mlBox.modelPath "\"/home/ylnner/Documents/omnet++/omnetpp-6.3.0/projects/florasat_v4_ult_routing/simulations/Test_Individual/mlmodels/transformer_scripted.pt\""
config **.numberOfPacketsToSend 0
config **.timeToFirstPacket 1s
config **.timeToNextPacket 50s
config *.terminal[0].mob.radius 0.0
config *.terminal[0].mob.centerLatitude 54.978
config *.terminal[0].mob.centerLongitude -1.617
config *.terminal[1].mob.radius 0.0
config *.terminal[1].mob.centerLatitude 52.630
config *.terminal[1].mob.centerLongitude -1.139
config *.terminal[2].mob.radius 0.0
config *.terminal[2].mob.centerLatitude 52.612
config *.terminal[2].mob.centerLongitude -6.295
config *.terminal[3].mob.radius 0.0
config *.terminal[3].mob.centerLatitude 47.243
config *.terminal[3].mob.centerLongitude 6.024
config *.terminal[4].mob.radius 0.0
config *.terminal[4].mob.centerLatitude 43.610
config *.terminal[4].mob.centerLongitude 3.876
config *.terminal[5].mob.radius 0.0
config *.terminal[5].mob.centerLatitude 49.443
config *.terminal[5].mob.centerLongitude 1.099
config *.terminal[6].mob.radius 0.0
config *.terminal[6].mob.centerLatitude 37.992
config *.terminal[6].mob.centerLongitude -1.130
config *.terminal[7].mob.radius 0.0
config *.terminal[7].mob.centerLatitude 40.965
config *.terminal[7].mob.centerLongitude -5.664
config *.terminal[8].mob.radius 0.0
config *.terminal[8].mob.centerLatitude 40.657
config *.terminal[8].mob.centerLongitude -7.914
config *.terminal[9].mob.radius 0.0
config *.terminal[9].mob.centerLatitude 51.340
config *.terminal[9].mob.centerLongitude 12.373
config *.terminal[10].mob.radius 0.0
config *.terminal[10].mob.centerLatitude 51.455
config *.terminal[10].mob.centerLongitude 7.011
config *.terminal[11].mob.radius 0.0
config *.terminal[11].mob.centerLatitude 49.452
config *.terminal[11].mob.centerLongitude 11.076
config *.terminal[12].mob.radius 0.0
config *.terminal[12].mob.centerLatitude 43.769
config *.terminal[12].mob.centerLongitude 11.255
config *.terminal[13].mob.radius 0.0
config *.terminal[13].mob.centerLatitude 41.117
config *.terminal[13].mob.centerLongitude 16.871
config *.terminal[14].mob.radius 0.0
config *.terminal[14].mob.centerLatitude 52.132
config *.terminal[14].mob.centerLongitude 5.291
config *.terminal[15].mob.radius 0.0
config *.terminal[15].mob.centerLatitude 50.411
config *.terminal[15].mob.centerLongitude 4.444
config *.terminal[16].mob.radius 0.0
config *.terminal[16].mob.centerLatitude 47.559
config *.terminal[16].mob.centerLongitude 7.588
config *.terminal[17].mob.radius 0.0
config *.terminal[17].mob.centerLatitude 55.403
config *.terminal[17].mob.centerLongitude 10.402
config *.terminal[18].mob.radius 0.0
config *.terminal[18].mob.centerLatitude 59.858
config *.terminal[18].mob.centerLongitude 17.638
config *.terminal[19].mob.radius 0.0
config *.terminal[19].mob.centerLatitude 60.451
config *.terminal[19].mob.centerLongitude 22.266
config *.terminal[20].mob.radius 0.0
config *.terminal[20].mob.centerLatitude 56.325
config *.terminal[20].mob.centerLongitude 22.349
config *.terminal[21].mob.radius 0.0
config *.terminal[21].mob.centerLatitude 49.883
config *.terminal[21].mob.centerLongitude 18.568
config *.terminal[22].mob.radius 0.0
config *.terminal[22].mob.centerLatitude 47.531
config *.terminal[22].mob.centerLongitude 21.627
config *.terminal[23].mob.radius 0.0
config *.terminal[23].mob.centerLatitude 44.179
config *.terminal[23].mob.centerLongitude 28.649
config *.terminal[24].mob.radius 0.0
config *.terminal[24].mob.centerLatitude 45.327
config *.terminal[24].mob.centerLongitude 14.442
config *.terminal[25].mob.radius 0.0
config *.terminal[25].mob.centerLatitude 40.694
config *.terminal[25].mob.centerLongitude 30.400
config *.terminal[26].mob.radius 0.0
config *.terminal[26].mob.centerLatitude 37.066
config *.terminal[26].mob.centerLongitude 37.383
config *.terminal[27].mob.radius 0.0
config *.terminal[27].mob.centerLatitude 64.836
config *.terminal[27].mob.centerLongitude -23.708
config *.terminal[28].mob.radius 0.0
config *.terminal[28].mob.centerLatitude 28.099
config *.terminal[28].mob.centerLongitude -17.113
config *.terminal[29].mob.radius 0.0
config *.terminal[29].mob.centerLatitude 34.921
config *.terminal[29].mob.centerLongitude 33.623
config **.numStations 3
config **.numStations 3
config *.station[0].mobility.latitude 55.752
config *.station[0].mobility.longitude 37.616
config *.station[0].cityName "\"Moscow\""
config *.station[0].groundStationId 7
config *.station[0].routerAddr "\"10.0.0.29\""
config *.station[0].serving "\"10.0.0.29\""
config *.station[1].mobility.latitude 28.652
config *.station[1].mobility.longitude 77.231
config *.station[1].cityName "\"Delhi\""
config *.station[1].groundStationId 11
config *.station[1].routerAddr "\"10.0.0.45\""
config *.station[1].serving "\"10.0.0.45\""
config *.station[2].mobility.latitude 25.35
config *.station[2].mobility.longitude 51.24
config *.station[2].cityName "\"Katar\""
config *.station[2].groundStationId 19
config *.station[2].routerAddr "\"10.0.0.77\""
config *.station[2].serving "\"10.0.0.77\""
config *.visualizer.canvasVisualizer.mediumVisualizer.typename ""
config *.visualizer.*.radioVisualizer.displayAntennaLobes true
config *.visualizer.*.dataLinkVisualizer.displayLinks true
config *.visualizer.*.mobilityVisualizer.displayMovementTrails true
config *.visualizer.*.mobilityVisualizer.movementTrailLineWidth 1
config *.visualizer.*.mobilityVisualizer.trailLength 3000
config **.ttxStart_max 30s
config **.ttxIdle_min 10s
config **.ttxIdle_max 25s
config **.Ntw 2
config **.Ntx 45
config **.ttwDuration 550s

vector 0 Florasat_Individual_Sats.satellite[0].dlkDSL.mac "Satellite Position when Repetition Received" ETV
vector 1 Florasat_Individual_Sats.satellite[0].dlkDSL.mac "Repetition Position for Node 403 at Satellite" ETV
vector 2 Florasat_Individual_Sats.satellite[0].dlkDSL.mac "All Nodes Repetition Generation Delay at Satellite" ETV
vector 3 Florasat_Individual_Sats.satellite[0].dlkDSL.mac "Repetition Generation Delay for Node 403 at Satellite" ETV
vector 4 Florasat_Individual_Sats.satellite[0].dlkDSL.mac "All Nodes Message Generation Delay at Satellite" ETV
vector 5 Florasat_Individual_Sats.satellite[0].dlkDSL.mac "Message Generation Delay for Node 403 at Satellite" ETV
vector 6 Florasat_Individual_Sats.satellite[0].net.packetHandler "packets received" ETV
vector 7 Florasat_Individual_Sats.satellite[0].net.packetHandler "dropped unroutable" ETV
vector 8 Florasat_Individual_Sats.satellite[0].net.packetHandler "packets dropped" ETV
vector 9 Florasat_Individual_Sats.satellite[0].dlkDSL.mac "Repetition Position for Node 358 at Satellite" ETV
vector 10 Florasat_Individual_Sats.satellite[0].dlkDSL.mac "Repetition Generation Delay for Node 358 at Satellite" ETV
vector 11 Florasat_Individual_Sats.satellite[0].dlkDSL.mac "Message Generation Delay for Node 358 at Satellite" ETV
vector 12 Florasat_Individual_Sats.satellite[0].dlkDSL.mac "Repetition Position for Node 328 at Satellite" ETV
vector 13 Florasat_Individual_Sats.satellite[0].dlkDSL.mac "Repetition Generation Delay for Node 328 at Satellite" ETV
vector 14 Florasat_Individual_Sats.satellite[0].dlkDSL.mac "Message Generation Delay for Node 328 at Satellite" ETV
vector 15 Florasat_Individual_Sats.satellite[0].dlkDSL.mac "Repetition Position for Node 268 at Satellite" ETV
vector 16 Florasat_Individual_Sats.satellite[0].dlkDSL.mac "Repetition Generation Delay for Node 268 at Satellite" ETV
vector 17 Florasat_Individual_Sats.satellite[0].dlkDSL.mac "Message Generation Delay for Node 268 at Satellite" ETV
vector 18 Florasat_Individual_Sats.satellite[0].dlkDSL.mac "Repetition Position for Node 133 at Satellite" ETV
vector 19 Florasat_Individual_Sats.satellite[0].dlkDSL.mac "Repetition Generation Delay for Node 133 at Satellite" ETV
vector 20 Florasat_Individual_Sats.satellite[0].dlkDSL.mac "Message Generation Delay for Node 133 at Satellite" ETV
vector 21 Florasat_Individual_Sats.satellite[0].dlkDSL.mac "Repetition Position for Node 343 at Satellite" ETV
vector 22 Florasat_Individual_Sats.satellite[0].dlkDSL.mac "Repetition Generation Delay for Node 343 at Satellite" ETV
vector 23 Florasat_Individual_Sats.satellite[0].dlkDSL.mac "Message Generation Delay for Node 343 at Satellite" ETV
vector 24 Florasat_Individual_Sats.satellite[0].dlkDSL.mac "Repetition Position for Node 58 at Satellite" ETV
vector 25 Florasat_Individual_Sats.satellite[0].dlkDSL.mac "Repetition Generation Delay for Node 58 at Satellite" ETV
vector 26 Florasat_Individual_Sats.satellite[0].dlkDSL.mac "Message Generation Delay for Node 58 at Satellite" ETV
vector 27 Florasat_Individual_Sats.satellite[0].dlkDSL.mac "Repetition Position for Node 373 at Satellite" ETV
vector 28 Florasat_Individual_Sats.satellite[0].dlkDSL.mac "Repetition Generation Delay for Node 373 at Satellite" ETV
vector 29 Florasat_Individual_Sats.satellite[0].dlkDSL.mac "Message Generation Delay for Node 373 at Satellite" ETV
vector 30 Florasat_Individual_Sats.satellite[0].dlkDSL.mac "Repetition Position for Node 313 at Satellite" ETV
vector 31 Florasat_Individual_Sats.satellite[0].dlkDSL.mac "Repetition Generation Delay for Node 313 at Satellite" ETV
vector 32 Florasat_Individual_Sats.satellite[0].dlkDSL.mac "Message Generation Delay for Node 313 at Satellite" ETV
vector 33 Florasat_Individual_Sats.satellite[0].dlkDSL.mac "Repetition Position for Node 73 at Satellite" ETV
vector 34 Florasat_Individual_Sats.satellite[0].dlkDSL.mac "Repetition Generation Delay for Node 73 at Satellite" ETV
vector 35 Florasat_Individual_Sats.satellite[0].dlkDSL.mac "Message Generation Delay for Node 73 at Satellite" ETV
vector 36 Florasat_Individual_Sats.satellite[0].dlkDSL.mac "Repetition Position for Node 193 at Satellite" ETV
vector 37 Florasat_Individual_Sats.satellite[0].dlkDSL.mac "Repetition Generation Delay for Node 193 at Satellite" ETV
vector 38 Florasat_Individual_Sats.satellite[0].dlkDSL.mac "Message Generation Delay for Node 193 at Satellite" ETV
vector 39 Florasat_Individual_Sats.satellite[0].dlkDSL.mac "Repetition Position for Node 283 at Satellite" ETV
vector 40 Florasat_Individual_Sats.satellite[0].dlkDSL.mac "Repetition Generation Delay for Node 283 at Satellite" ETV
vector 41 Florasat_Individual_Sats.satellite[0].dlkDSL.mac "Message Generation Delay for Node 283 at Satellite" ETV
vector 42 Florasat_Individual_Sats.satellite[0].dlkDSL.mac "Repetition Position for Node 418 at Satellite" ETV
vector 43 Florasat_Individual_Sats.satellite[0].dlkDSL.mac "Repetition Generation Delay for Node 418 at Satellite" ETV
vector 44 Florasat_Individual_Sats.satellite[0].dlkDSL.mac "Message Generation Delay for Node 418 at Satellite" ETV
vector 45 Florasat_Individual_Sats.satellite[0].dlkDSL.mac "Repetition Position for Node 223 at Satellite" ETV
vector 46 Florasat_Individual_Sats.satellite[0].dlkDSL.mac "Repetition Generation Delay for Node 223 at Satellite" ETV
vector 47 Florasat_Individual_Sats.satellite[0].dlkDSL.mac "Message Generation Delay for Node 223 at Satellite" ETV
vector 48 Florasat_Individual_Sats.satellite[0].dlkDSL.mac "Repetition Position for Node 238 at Satellite" ETV
vector 49 Florasat_Individual_Sats.satellite[0].dlkDSL.mac "Repetition Generation Delay for Node 238 at Satellite" ETV
vector 50 Florasat_Individual_Sats.satellite[0].dlkDSL.mac "Message Generation Delay for Node 238 at Satellite" ETV
vector 51 Florasat_Individual_Sats.satellite[0].dlkDSL.mac "Repetition Position for Node 388 at Satellite" ETV
vector 52 Florasat_Individual_Sats.satellite[0].dlkDSL.mac "Repetition Generation Delay for Node 388 at Satellite" ETV
vector 53 Florasat_Individual_Sats.satellite[0].dlkDSL.mac "Message Generation Delay for Node 388 at Satellite" ETV
vector 54 Florasat_Individual_Sats.satellite[0].dlkDSL.mac "Repetition Position for Node 88 at Satellite" ETV
vector 55 Florasat_Individual_Sats.satellite[0].dlkDSL.mac "Repetition Generation Delay for Node 88 at Satellite" ETV
vector 56 Florasat_Individual_Sats.satellite[0].dlkDSL.mac "Message Generation Delay for Node 88 at Satellite" ETV
vector 57 Florasat_Individual_Sats.satellite[0].dlkDSL.mac "Repetition Position for Node 103 at Satellite" ETV
vector 58 Florasat_Individual_Sats.satellite[0].dlkDSL.mac "Repetition Generation Delay for Node 103 at Satellite" ETV
vector 59 Florasat_Individual_Sats.satellite[0].dlkDSL.mac "Message Generation Delay for Node 103 at Satellite" ETV
vector 60 Florasat_Individual_Sats.satellite[0].dlkDSL.mac "Repetition Position for Node 208 at Satellite" ETV
vector 61 Florasat_Individual_Sats.satellite[0].dlkDSL.mac "Repetition Generation Delay for Node 208 at Satellite" ETV
vector 62 Florasat_Individual_Sats.satellite[0].dlkDSL.mac "Message Generation Delay for Node 208 at Satellite" ETV
vector 63 Florasat_Individual_Sats.satellite[0].dlkDSL.mac "Repetition Position for Node 148 at Satellite" ETV
vector 64 Florasat_Individual_Sats.satellite[0].dlkDSL.mac "Repetition Generation Delay for Node 148 at Satellite" ETV
vector 65 Florasat_Individual_Sats.satellite[0].dlkDSL.mac "Message Generation Delay for Node 148 at Satellite" ETV
vector 66 Florasat_Individual_Sats.satellite[0].dlkDSL.mac "Repetition Position for Node 118 at Satellite" ETV
vector 67 Florasat_Individual_Sats.satellite[0].dlkDSL.mac "Repetition Generation Delay for Node 118 at Satellite" ETV
vector 68 Florasat_Individual_Sats.satellite[0].dlkDSL.mac "Message Generation Delay for Node 118 at Satellite" ETV
vector 69 Florasat_Individual_Sats.satellite[0].dlkDSL.mac "Repetition Position for Node 298 at Satellite" ETV
vector 70 Florasat_Individual_Sats.satellite[0].dlkDSL.mac "Repetition Generation Delay for Node 298 at Satellite" ETV
vector 71 Florasat_Individual_Sats.satellite[0].dlkDSL.mac "Message Generation Delay for Node 298 at Satellite" ETV
vector 72 Florasat_Individual_Sats.satellite[0].dlkDSL.mac "Repetition Position for Node 253 at Satellite" ETV
vector 73 Florasat_Individual_Sats.satellite[0].dlkDSL.mac "Repetition Generation Delay for Node 253 at Satellite" ETV
vector 74 Florasat_Individual_Sats.satellite[0].dlkDSL.mac "Message Generation Delay for Node 253 at Satellite" ETV
0	160	8.43245585043	180
0	224	16.58932087937	180
0	236	18.11733536831	180
0	280	24.26304862815	180
0	366	31.67510652742	180
0	378	32.47905787061	180
0	402	34.38761016697	180
0	454	39.3987441982	180
0	467	40.78007940416	180
0	496	44.51214532595	180
0	516	46.38975137709	180
0	705	54.98725453269	180
0	714	56.29204263426	180
0	769	62.41504334489	180
0	774	62.9562696929	180
0	808	65.11712823523	180
0	866	70.29173595462	180
0	926	75.92282159713	180
0	932	76.6925214691	180
0	967	79.95616135997	180
0	991	82.56366597236	180
0	995	82.87746116513	180
0	1014	85.09597855563	180
0	1084	92.04616845994	180
0	1114	95.28308106683	180
0	1135	96.85901641258	180
0	1149	97.9472843645	180
0	1170	99.46103371442	180
0	1303	105.54249783224	180
0	1317	106.72928861206	180
0	1331	107.94548804815	180
0	1350	110.21083894414	180
0	1398	114.19207461988	180
0	1436	116.5754920483	180
0	1461	118.70901018943	180
0	1493	121.84475428302	180
0	1502	122.9991787088	180
0	1506	123.07037684311	180
0	1522	126.12644358416	180
0	1581	131.16993260084	180
0	1627	134.29678684393	180
0	1645	135.44565069199	180
0	1655	135.8853393663	180
0	1671	137.74283101492	180
0	1712	142.63356268865	180
0	1719	143.13813582639	180
0	1738	145.69097262518	180
0	1760	148.63712751987	180
0	1774	149.97018786956	180
0	1890	151.01863739839	180
0	1916	152.96926424665	180
0	1930	153.89460638261	180
0	1982	160.77240971726	180
0	1999	162.23735224631	180
0	2026	165.17637016711	180
0	2033	165.31502013656	180
0	2042	166.02175264265	180
0	2067	168.17769712879	180
0	2084	170.52624293081	180
0	2117	173.1232618585	180
0	2142	175.24628360865	180
0	2160	178.08632199879	180
0	2183	180.1215008832	180
0	2187	180.24305741398	180
0	2217	182.08880369495	180
0	2288	188.15365463606	180
0	2295	188.62569869024	180
0	2299	188.75796579117	180
0	2303	189.47777318747	180
0	2321	190.7092728204	180
0	2327	191.54452133787	180
0	2338	193.16854316918	180
0	2349	193.62799387172	180
0	2353	193.76196699793	180
0	2357	194.05806038006	180
0	2366	195.42315077329	180
0	2382	196.95514546933	180
0	2395	197.97952153946	180
0	2403	198.54198847879	180
0	2518	202.38034761024	180
0	2532	203.43268812512	180
0	2561	204.71825620103	180
0	2568	205.09964441061	180
0	2576	205.58579542072	180
0	2639	212.1122185734	180
0	2672	214.59810101886	180
0	2698	218.83334292776	180
0	2715	220.54549679503	180
0	2719	220.90999826267	180
0	2728	222.09412118831	180
0	2756	223.69315130398	180
0	2760	223.73282875342	180
0	2795	225.72890112055	180
0	2821	227.66774223879	180
0	2835	228.96550274099	180
0	2839	229.05686154009	180
0	2871	232.20126183647	180
0	2889	235.02810397877	180
0	2899	235.87442326935	180
0	2914	237.83551498415	180
0	2918	238.02452484321	180
0	2929	238.67240625661	180
0	2960	242.57699114331	180
0	3008	245.9033951838	180
0	3024	248.1563246	180
0	3037	249.23727401177	180
0	3051	250.482635948	180
0	3157	253.13888774931	180
0	3178	256.08397558908	180
0	3188	256.77205916255	180
0	3205	257.87751393851	180
0	3218	258.91638426868	180
0	3229	260.35776100065	180
0	3257	262.41532537731	180
0	3271	264.42811426818	180
0	3287	266.55596794154	180
0	3304	268.39185200624	180
0	3329	273.41693728912	180
0	3358	277.01025874348	180
0	3371	278.64298912575	180
0	3382	280.94395992212	180
0	3395	285.06403806911	180
0	3424	290.75979293084	180
0	3449	300.07652512501	180
0	3559	308.88130390646	180
0	3584	316.78300732031	180
0	3594	320.07645559476	180
0	3604	322.63139507364	180
0	3631	334.00458944941	180
0	3674	347.22891690967	180
0	3687	350.28460339393	180
0	3792	355.67257968106	180
0	3823	369.94558193198	180
0	3864	389.50541640225	180
0	3877	394.14842717212	180
0	3887	395.2680879977	180
0	4012	410.70564188705	180
0	4023	414.18353460206	180
0	4038	416.5552749634	180
0	4065	427.72027410394	180
0	4095	440.15195578979	180
0	4229	461.02510913568	180
0	4255	471.49283614885	180
1	160	8.43245585043	180
1	1331	107.94548804815	180
1	1999	162.23735224631	180
1	2760	223.73282875342	180
1	2918	238.02452484321	180
1	3051	250.482635948	180
2	160	8.43245585043	7.43245585043
2	224	16.58932087937	15.58932087937
2	236	18.11733536831	17.11733536831
2	280	24.26304862815	23.26304862815
2	366	31.67510652742	30.67510652742
2	378	32.47905787061	31.47905787061
2	402	34.38761016697	33.38761016697
2	454	39.3987441982	38.3987441982
2	467	40.78007940416	39.78007940416
2	496	44.51214532595	43.51214532595
2	516	46.38975137709	45.38975137709
2	705	54.98725453269	53.98725453269
2	714	56.29204263426	55.29204263426
2	769	62.41504334489	61.41504334489
2	774	62.9562696929	61.9562696929
2	808	65.11712823523	64.11712823523
2	866	70.29173595462	69.29173595462
2	926	75.92282159713	74.92282159713
2	932	76.6925214691	75.6925214691
2	967	79.95616135997	78.95616135997
2	991	82.56366597236	81.56366597236
2	995	82.87746116513	81.87746116513
2	1014	85.09597855563	84.09597855563
2	1084	92.04616845994	91.04616845994
2	1114	95.28308106683	94.28308106683
2	1135	96.85901641258	95.85901641258
2	1149	97.9472843645	96.9472843645
2	1170	99.46103371442	98.46103371442
2	1303	105.54249783224	104.54249783224
2	1317	106.72928861206	105.72928861206
2	1331	107.94548804815	106.94548804815
2	1350	110.21083894414	109.21083894414
2	1398	114.19207461988	113.19207461988
2	1436	116.5754920483	115.5754920483
2	1461	118.70901018943	117.70901018943
2	1493	121.84475428302	120.84475428302
2	1502	122.9991787088	121.9991787088
2	1506	123.07037684311	122.07037684311
2	1522	126.12644358416	125.12644358416
2	1581	131.16993260084	130.16993260084
2	1627	134.29678684393	133.29678684393
2	1645	135.44565069199	134.44565069199
2	1655	135.8853393663	134.8853393663
2	1671	137.74283101492	136.74283101492
2	1712	142.63356268865	141.63356268865
2	1719	143.13813582639	142.13813582639
2	1738	145.69097262518	144.69097262518
2	1760	148.63712751987	147.63712751987
2	1774	149.97018786956	148.97018786956
2	1890	151.01863739839	150.01863739839
2	1916	152.96926424665	151.96926424665
2	1930	153.89460638261	152.89460638261
2	1982	160.77240971726	159.77240971726
2	1999	162.23735224631	161.23735224631
2	2026	165.17637016711	164.17637016711
2	2033	165.31502013656	164.31502013656
2	2042	166.02175264265	165.02175264265
2	2067	168.17769712879	167.17769712879
2	2084	170.52624293081	169.52624293081
2	2117	173.1232618585	172.1232618585
2	2142	175.24628360865	174.24628360865
2	2160	178.08632199879	177.08632199879
2	2183	180.1215008832	179.1215008832
2	2187	180.24305741398	179.24305741398
2	2217	182.08880369495	181.08880369495
2	2288	188.15365463606	187.15365463606
2	2295	188.62569869024	187.62569869024
2	2299	188.75796579117	187.75796579117
2	2303	189.47777318747	188.47777318747
2	2321	190.7092728204	189.7092728204
2	2327	191.54452133787	190.54452133787
2	2338	193.16854316918	192.16854316918
2	2349	193.62799387172	192.62799387172
2	2353	193.76196699793	192.76196699793
2	2357	194.05806038006	193.05806038006
2	2366	195.42315077329	194.42315077329
2	2382	196.95514546933	195.95514546933
2	2395	197.97952153946	196.97952153946
2	2403	198.54198847879	197.54198847879
2	2518	202.38034761024	201.38034761024
2	2532	203.43268812512	202.43268812512
2	2561	204.71825620103	203.71825620103
2	2568	205.09964441061	204.09964441061
2	2576	205.58579542072	204.58579542072
2	2639	212.1122185734	211.1122185734
2	2672	214.59810101886	213.59810101886
2	2698	218.83334292776	217.83334292776
2	2715	220.54549679503	219.54549679503
2	2719	220.90999826267	219.90999826267
2	2728	222.09412118831	221.09412118831
2	2756	223.69315130398	222.69315130398
2	2760	223.73282875342	222.73282875342
2	2795	225.72890112055	224.72890112055
2	2821	227.66774223879	226.66774223879
2	2835	228.96550274099	227.96550274099
2	2839	229.05686154009	228.05686154009
2	2871	232.20126183647	231.20126183647
2	2889	235.02810397877	234.02810397877
2	2899	235.87442326935	234.87442326935
2	2914	237.83551498415	236.83551498415
2	2918	238.02452484321	237.02452484321
2	2929	238.67240625661	237.67240625661
2	2960	242.57699114331	241.57699114331
2	3008	245.9033951838	244.9033951838
2	3024	248.1563246	247.1563246
2	3037	249.23727401177	248.23727401177
2	3051	250.482635948	249.482635948
2	3157	253.13888774931	252.13888774931
2	3178	256.08397558908	255.08397558908
2	3188	256.77205916255	255.77205916255
2	3205	257.87751393851	256.87751393851
2	3218	258.91638426868	257.91638426868
2	3229	260.35776100065	259.35776100065
2	3257	262.41532537731	261.41532537731
2	3271	264.42811426818	263.42811426818
2	3287	266.55596794154	265.55596794154
2	3304	268.39185200624	267.39185200624
2	3329	273.41693728912	272.41693728912
2	3358	277.01025874348	276.01025874348
2	3371	278.64298912575	277.64298912575
2	3382	280.94395992212	279.94395992212
2	3395	285.06403806911	284.06403806911
2	3424	290.75979293084	289.75979293084
2	3449	300.07652512501	299.07652512501
2	3559	308.88130390646	307.88130390646
2	3584	316.78300732031	315.78300732031
2	3594	320.07645559476	319.07645559476
2	3604	322.63139507364	321.63139507364
2	3631	334.00458944941	333.00458944941
2	3674	347.22891690967	346.22891690967
2	3687	350.28460339393	349.28460339393
2	3792	355.67257968106	354.67257968106
2	3823	369.94558193198	368.94558193198
2	3864	389.50541640225	388.50541640225
2	3877	394.14842717212	393.14842717212
2	3887	395.2680879977	394.2680879977
2	4012	410.70564188705	409.70564188705
2	4023	414.18353460206	413.18353460206
2	4038	416.5552749634	415.5552749634
2	4065	427.72027410394	426.72027410394
2	4095	440.15195578979	439.15195578979
2	4229	461.02510913568	460.02510913568
2	4255	471.49283614885	470.49283614885
3	160	8.43245585043	7.43245585043
3	1331	107.94548804815	106.94548804815
3	1999	162.23735224631	161.23735224631
3	2760	223.73282875342	222.73282875342
3	2918	238.02452484321	237.02452484321
3	3051	250.482635948	249.482635948
4	160	8.43245585043	7.43245585043
4	224	16.58932087937	15.58932087937
4	236	18.11733536831	17.11733536831
4	280	24.26304862815	23.26304862815
4	366	31.67510652742	30.67510652742
4	378	32.47905787061	31.47905787061
4	402	34.38761016697	33.38761016697
4	467	40.78007940416	39.78007940416
4	496	44.51214532595	43.51214532595
4	705	54.98725453269	53.98725453269
4	714	56.29204263426	55.29204263426
4	932	76.6925214691	75.6925214691
4	1502	122.9991787088	121.9991787088
4	1671	137.74283101492	136.74283101492
4	1738	145.69097262518	144.69097262518
4	1916	152.96926424665	151.96926424665
4	2142	175.24628360865	174.24628360865
4	2338	193.16854316918	192.16854316918
4	2349	193.62799387172	192.62799387172
4	2357	194.05806038006	193.05806038006
4	2382	196.95514546933	195.95514546933
4	3329	273.41693728912	272.41693728912
4	3358	277.01025874348	276.01025874348
5	160	8.43245585043	7.43245585043
6	161	8.43245585043	1
6	225	16.58932087937	2
6	237	18.11733536831	3
6	281	24.26304862815	4
6	367	31.67510652742	5
6	379	32.47905787061	6
6	403	34.38761016697	7
6	455	39.3987441982	8
6	468	40.78007940416	9
6	497	44.51214532595	10
6	517	46.38975137709	11
6	706	54.98725453269	12
6	715	56.29204263426	13
6	770	62.41504334489	14
6	775	62.9562696929	15
6	809	65.11712823523	16
6	867	70.29173595462	17
6	927	75.92282159713	18
6	933	76.6925214691	19
6	968	79.95616135997	20
6	992	82.56366597236	21
6	996	82.87746116513	22
6	1015	85.09597855563	23
6	1085	92.04616845994	24
6	1115	95.28308106683	25
6	1136	96.85901641258	26
6	1150	97.9472843645	27
6	1171	99.46103371442	28
6	1304	105.54249783224	29
6	1318	106.72928861206	30
6	1332	107.94548804815	31
6	1351	110.21083894414	32
6	1399	114.19207461988	33
6	1437	116.5754920483	34
6	1462	118.70901018943	35
6	1494	121.84475428302	36
6	1503	122.9991787088	37
6	1507	123.07037684311	38
6	1523	126.12644358416	39
6	1582	131.16993260084	40
6	1628	134.29678684393	41
6	1646	135.44565069199	42
6	1656	135.8853393663	43
6	1672	137.74283101492	44
6	1713	142.63356268865	45
6	1720	143.13813582639	46
6	1739	145.69097262518	47
6	1761	148.63712751987	48
6	1775	149.97018786956	49
6	1891	151.01863739839	50
6	1917	152.96926424665	51
6	1931	153.89460638261	52
6	1983	160.77240971726	53
6	2000	162.23735224631	54
6	2027	165.17637016711	55
6	2034	165.31502013656	56
6	2043	166.02175264265	57
6	2068	168.17769712879	58
6	2085	170.52624293081	59
6	2118	173.1232618585	60
6	2143	175.24628360865	61
6	2161	178.08632199879	62
6	2184	180.1215008832	63
6	2188	180.24305741398	64
6	2218	182.08880369495	65
6	2289	188.15365463606	66
6	2296	188.62569869024	67
6	2300	188.75796579117	68
6	2304	189.47777318747	69
6	2322	190.7092728204	70
6	2328	191.54452133787	71
6	2339	193.16854316918	72
6	2350	193.62799387172	73
6	2354	193.76196699793	74
6	2358	194.05806038006	75
6	2367	195.42315077329	76
6	2383	196.95514546933	77
6	2396	197.97952153946	78
6	2404	198.54198847879	79
6	2519	202.38034761024	80
6	2533	203.43268812512	81
6	2562	204.71825620103	82
6	2569	205.09964441061	83
6	2577	205.58579542072	84
6	2640	212.1122185734	85
6	2673	214.59810101886	86
6	2699	218.83334292776	87
6	2716	220.54549679503	88
6	2720	220.90999826267	89
6	2729	222.09412118831	90
6	2757	223.69315130398	91
6	2761	223.73282875342	92
6	2796	225.72890112055	93
6	2822	227.66774223879	94
6	2836	228.96550274099	95
6	2840	229.05686154009	96
6	2872	232.20126183647	97
6	2890	235.02810397877	98
6	2900	235.87442326935	99
6	2915	237.83551498415	100
6	2919	238.02452484321	101
6	2930	238.67240625661	102
6	2961	242.57699114331	103
6	3009	245.9033951838	104
6	3025	248.1563246	105
6	3038	249.23727401177	106
6	3052	250.482635948	107
6	3158	253.13888774931	108
6	3179	256.08397558908	109
6	3189	256.77205916255	110
6	3206	257.87751393851	111
6	3219	258.91638426868	112
6	3230	260.35776100065	113
6	3258	262.41532537731	114
6	3272	264.42811426818	115
6	3288	266.55596794154	116
6	3305	268.39185200624	117
6	3330	273.41693728912	118
6	3359	277.01025874348	119
6	3372	278.64298912575	120
6	3383	280.94395992212	121
6	3396	285.06403806911	122
6	3425	290.75979293084	123
6	3450	300.07652512501	124
6	3560	308.88130390646	125
6	3585	316.78300732031	126
6	3595	320.07645559476	127
6	3605	322.63139507364	128
6	3632	334.00458944941	129
6	3675	347.22891690967	130
6	3688	350.28460339393	131
6	3793	355.67257968106	132
6	3824	369.94558193198	133
6	3865	389.50541640225	134
6	3878	394.14842717212	135
6	3888	395.2680879977	136
6	4013	410.70564188705	137
6	4024	414.18353460206	138
6	4039	416.5552749634	139
6	4066	427.72027410394	140
6	4096	440.15195578979	141
6	4230	461.02510913568	142
6	4256	471.49283614885	143
7	161	8.43245585043	1
7	225	16.58932087937	2
7	237	18.11733536831	3
7	281	24.26304862815	4
7	367	31.67510652742	5
7	379	32.47905787061	6
7	403	34.38761016697	7
7	455	39.3987441982	8
7	468	40.78007940416	9
7	497	44.51214532595	10
7	517	46.38975137709	11
7	706	54.98725453269	12
7	715	56.29204263426	13
7	770	62.41504334489	14
7	775	62.9562696929	15
7	809	65.11712823523	16
7	867	70.29173595462	17
7	927	75.92282159713	18
7	933	76.6925214691	19
7	968	79.95616135997	20
7	992	82.56366597236	21
7	996	82.87746116513	22
7	1015	85.09597855563	23
7	1085	92.04616845994	24
7	1115	95.28308106683	25
7	1136	96.85901641258	26
7	1150	97.9472843645	27
7	1171	99.46103371442	28
7	1304	105.54249783224	29
7	1318	106.72928861206	30
7	1332	107.94548804815	31
7	1351	110.21083894414	32
7	1399	114.19207461988	33
7	1437	116.5754920483	34
7	1462	118.70901018943	35
7	1494	121.84475428302	36
7	1503	122.9991787088	37
7	1507	123.07037684311	38
7	1523	126.12644358416	39
7	1582	131.16993260084	40
7	1628	134.29678684393	41
7	1646	135.44565069199	42
7	1656	135.8853393663	43
7	1672	137.74283101492	44
7	1713	142.63356268865	45
7	1720	143.13813582639	46
7	1739	145.69097262518	47
7	1761	148.63712751987	48
7	1775	149.97018786956	49
7	1891	151.01863739839	50
7	1917	152.96926424665	51
7	1931	153.89460638261	52
7	1983	160.77240971726	53
7	2000	162.23735224631	54
7	2027	165.17637016711	55
7	2034	165.31502013656	56
7	2043	166.02175264265	57
7	2068	168.17769712879	58
7	2085	170.52624293081	59
7	2118	173.1232618585	60
7	2143	175.24628360865	61
7	2161	178.08632199879	62
7	2184	180.1215008832	63
7	2188	180.24305741398	64
7	2218	182.08880369495	65
7	2289	188.15365463606	66
7	2296	188.62569869024	67
7	2300	188.75796579117	68
7	2304	189.47777318747	69
7	2322	190.7092728204	70
7	2328	191.54452133787	71
7	2339	193.16854316918	72
7	2350	193.62799387172	73
7	2354	193.76196699793	74
7	2358	194.05806038006	75
7	2367	195.42315077329	76
7	2383	196.95514546933	77
7	2396	197.97952153946	78
7	2404	198.54198847879	79
7	2519	202.38034761024	80
7	2533	203.43268812512	81
7	2562	204.71825620103	82
7	2569	205.09964441061	83
7	2577	205.58579542072	84
7	2640	212.1122185734	85
7	2673	214.59810101886	86
7	2699	218.83334292776	87
7	2716	220.54549679503	88
7	2720	220.90999826267	89
7	2729	222.09412118831	90
7	2757	223.69315130398	91
7	2761	223.73282875342	92
7	2796	225.72890112055	93
7	2822	227.66774223879	94
7	2836	228.96550274099	95
7	2840	229.05686154009	96
7	2872	232.20126183647	97
7	2890	235.02810397877	98
7	2900	235.87442326935	99
7	2915	237.83551498415	100
7	2919	238.02452484321	101
7	2930	238.67240625661	102
7	2961	242.57699114331	103
7	3009	245.9033951838	104
7	3025	248.1563246	105
7	3038	249.23727401177	106
7	3052	250.482635948	107
7	3158	253.13888774931	108
7	3179	256.08397558908	109
7	3189	256.77205916255	110
7	3206	257.87751393851	111
7	3219	258.91638426868	112
7	3230	260.35776100065	113
7	3258	262.41532537731	114
7	3272	264.42811426818	115
7	3288	266.55596794154	116
7	3305	268.39185200624	117
7	3330	273.41693728912	118
7	3359	277.01025874348	119
7	3372	278.64298912575	120
7	3383	280.94395992212	121
7	3396	285.06403806911	122
7	3425	290.75979293084	123
7	3450	300.07652512501	124
7	3560	308.88130390646	125
7	3585	316.78300732031	126
7	3595	320.07645559476	127
7	3605	322.63139507364	128
7	3632	334.00458944941	129
7	3675	347.22891690967	130
7	3688	350.28460339393	131
7	3793	355.67257968106	132
7	3824	369.94558193198	133
7	3865	389.50541640225	134
7	3878	394.14842717212	135
7	3888	395.2680879977	136
7	4013	410.70564188705	137
7	4024	414.18353460206	138
7	4039	416.5552749634	139
7	4066	427.72027410394	140
7	4096	440.15195578979	141
7	4230	461.02510913568	142
7	4256	471.49283614885	143
8	161	8.43245585043	1
8	225	16.58932087937	2
8	237	18.11733536831	3
8	281	24.26304862815	4
8	367	31.67510652742	5
8	379	32.47905787061	6
8	403	34.38761016697	7
8	455	39.3987441982	8
8	468	40.78007940416	9
8	497	44.51214532595	10
8	517	46.38975137709	11
8	706	54.98725453269	12
8	715	56.29204263426	13
8	770	62.41504334489	14
8	775	62.9562696929	15
8	809	65.11712823523	16
8	867	70.29173595462	17
8	927	75.92282159713	18
8	933	76.6925214691	19
8	968	79.95616135997	20
8	992	82.56366597236	21
8	996	82.87746116513	22
8	1015	85.09597855563	23
8	1085	92.04616845994	24
8	1115	95.28308106683	25
8	1136	96.85901641258	26
8	1150	97.9472843645	27
8	1171	99.46103371442	28
8	1304	105.54249783224	29
8	1318	106.72928861206	30
8	1332	107.94548804815	31
8	1351	110.21083894414	32
8	1399	114.19207461988	33
8	1437	116.5754920483	34
8	1462	118.70901018943	35
8	1494	121.84475428302	36
8	1503	122.9991787088	37
8	1507	123.07037684311	38
8	1523	126.12644358416	39
8	1582	131.16993260084	40
8	1628	134.29678684393	41
8	1646	135.44565069199	42
8	1656	135.8853393663	43
8	1672	137.74283101492	44
8	1713	142.63356268865	45
8	1720	143.13813582639	46
8	1739	145.69097262518	47
8	1761	148.63712751987	48
8	1775	149.97018786956	49
8	1891	151.01863739839	50
8	1917	152.96926424665	51
8	1931	153.89460638261	52
8	1983	160.77240971726	53
8	2000	162.23735224631	54
8	2027	165.17637016711	55
8	2034	165.31502013656	56
8	2043	166.02175264265	57
8	2068	168.17769712879	58
8	2085	170.52624293081	59
8	2118	173.1232618585	60
8	2143	175.24628360865	61
8	2161	178.08632199879	62
8	2184	180.1215008832	63
8	2188	180.24305741398	64
8	2218	182.08880369495	65
8	2289	188.15365463606	66
8	2296	188.62569869024	67
8	2300	188.75796579117	68
8	2304	189.47777318747	69
8	2322	190.7092728204	70
8	2328	191.54452133787	71
8	2339	193.16854316918	72
8	2350	193.62799387172	73
8	2354	193.76196699793	74
8	2358	194.05806038006	75
8	2367	195.42315077329	76
8	2383	196.95514546933	77
8	2396	197.97952153946	78
8	2404	198.54198847879	79
8	2519	202.38034761024	80
8	2533	203.43268812512	81
8	2562	204.71825620103	82
8	2569	205.09964441061	83
8	2577	205.58579542072	84
8	2640	212.1122185734	85
8	2673	214.59810101886	86
8	2699	218.83334292776	87
8	2716	220.54549679503	88
8	2720	220.90999826267	89
8	2729	222.09412118831	90
8	2757	223.69315130398	91
8	2761	223.73282875342	92
8	2796	225.72890112055	93
8	2822	227.66774223879	94
8	2836	228.96550274099	95
8	2840	229.05686154009	96
8	2872	232.20126183647	97
8	2890	235.02810397877	98
8	2900	235.87442326935	99
8	2915	237.83551498415	100
8	2919	238.02452484321	101
8	2930	238.67240625661	102
8	2961	242.57699114331	103
8	3009	245.9033951838	104
8	3025	248.1563246	105
8	3038	249.23727401177	106
8	3052	250.482635948	107
8	3158	253.13888774931	108
8	3179	256.08397558908	109
8	3189	256.77205916255	110
8	3206	257.87751393851	111
8	3219	258.91638426868	112
8	3230	260.35776100065	113
8	3258	262.41532537731	114
8	3272	264.42811426818	115
8	3288	266.55596794154	116
8	3305	268.39185200624	117
8	3330	273.41693728912	118
8	3359	277.01025874348	119
8	3372	278.64298912575	120
8	3383	280.94395992212	121
8	3396	285.06403806911	122
8	3425	290.75979293084	123
8	3450	300.07652512501	124
8	3560	308.88130390646	125
8	3585	316.78300732031	126
8	3595	320.07645559476	127
8	3605	322.63139507364	128
8	3632	334.00458944941	129
8	3675	347.22891690967	130
8	3688	350.28460339393	131
8	3793	355.67257968106	132
8	3824	369.94558193198	133
8	3865	389.50541640225	134
8	3878	394.14842717212	135
8	3888	395.2680879977	136
8	4013	410.70564188705	137
8	4024	414.18353460206	138
8	4039	416.5552749634	139
8	4066	427.72027410394	140
8	4096	440.15195578979	141
8	4230	461.02510913568	142
8	4256	471.49283614885	143
9	224	16.58932087937	180
9	454	39.3987441982	180
9	808	65.11712823523	180
9	995	82.87746116513	180
9	1135	96.85901641258	180
9	1398	114.19207461988	180
9	1522	126.12644358416	180
9	1774	149.97018786956	180
9	2067	168.17769712879	180
9	2288	188.15365463606	180
9	2532	203.43268812512	180
9	2756	223.69315130398	180
9	2929	238.67240625661	180
9	3178	256.08397558908	180
10	224	16.58932087937	15.58932087937
10	454	39.3987441982	38.3987441982
10	808	65.11712823523	64.11712823523
10	995	82.87746116513	81.87746116513
10	1135	96.85901641258	95.85901641258
10	1398	114.19207461988	113.19207461988
10	1522	126.12644358416	125.12644358416
10	1774	149.97018786956	148.97018786956
10	2067	168.17769712879	167.17769712879
10	2288	188.15365463606	187.15365463606
10	2532	203.43268812512	202.43268812512
10	2756	223.69315130398	222.69315130398
10	2929	238.67240625661	237.67240625661
10	3178	256.08397558908	255.08397558908
11	224	16.58932087937	15.58932087937
12	236	18.11733536831	180
12	1014	85.09597855563	180
12	1149	97.9472843645	180
12	1436	116.5754920483	180
12	1627	134.29678684393	180
12	1890	151.01863739839	180
12	2084	170.52624293081	180
12	2321	190.7092728204	180
12	2561	204.71825620103	180
12	2719	220.90999826267	180
12	2871	232.20126183647	180
13	236	18.11733536831	17.11733536831
13	1014	85.09597855563	84.09597855563
13	1149	97.9472843645	96.9472843645
13	1436	116.5754920483	115.5754920483
13	1627	134.29678684393	133.29678684393
13	1890	151.01863739839	150.01863739839
13	2084	170.52624293081	169.52624293081
13	2321	190.7092728204	189.7092728204
13	2561	204.71825620103	203.71825620103
13	2719	220.90999826267	219.90999826267
13	2871	232.20126183647	231.20126183647
14	236	18.11733536831	17.11733536831
15	280	24.26304862815	180
15	774	62.9562696929	180
15	2403	198.54198847879	180
15	2914	237.83551498415	180
16	280	24.26304862815	23.26304862815
16	774	62.9562696929	61.9562696929
16	2403	198.54198847879	197.54198847879
16	2914	237.83551498415	236.83551498415
17	280	24.26304862815	23.26304862815
18	366	31.67510652742	180
18	1303	105.54249783224	180
18	2728	222.09412118831	180
19	366	31.67510652742	30.67510652742
19	1303	105.54249783224	104.54249783224
19	2728	222.09412118831	221.09412118831
20	366	31.67510652742	30.67510652742
21	378	32.47905787061	180
21	516	46.38975137709	180
21	866	70.29173595462	180
21	1114	95.28308106683	180
21	1317	106.72928861206	180
21	1461	118.70901018943	180
21	1655	135.8853393663	180
21	1930	153.89460638261	180
21	2033	165.31502013656	180
21	2187	180.24305741398	180
21	2518	202.38034761024	180
21	2698	218.83334292776	180
21	2839	229.05686154009	180
21	3157	253.13888774931	180
22	378	32.47905787061	31.47905787061
22	516	46.38975137709	45.38975137709
22	866	70.29173595462	69.29173595462
22	1114	95.28308106683	94.28308106683
22	1317	106.72928861206	105.72928861206
22	1461	118.70901018943	117.70901018943
22	1655	135.8853393663	134.8853393663
22	1930	153.89460638261	152.89460638261
22	2033	165.31502013656	164.31502013656
22	2187	180.24305741398	179.24305741398
22	2518	202.38034761024	201.38034761024
22	2698	218.83334292776	217.83334292776
22	2839	229.05686154009	228.05686154009
22	3157	253.13888774931	252.13888774931
23	378	32.47905787061	31.47905787061
24	402	34.38761016697	180
24	769	62.41504334489	180
24	1719	143.13813582639	180
24	1982	160.77240971726	180
24	2160	178.08632199879	180
24	2353	193.76196699793	180
24	2639	212.1122185734	180
24	2821	227.66774223879	180
25	402	34.38761016697	33.38761016697
25	769	62.41504334489	61.41504334489
25	1719	143.13813582639	142.13813582639
25	1982	160.77240971726	159.77240971726
25	2160	178.08632199879	177.08632199879
25	2353	193.76196699793	192.76196699793
25	2639	212.1122185734	211.1122185734
25	2821	227.66774223879	226.66774223879
26	402	34.38761016697	33.38761016697
27	467	40.78007940416	180
27	991	82.56366597236	180
27	1581	131.16993260084	180
27	2117	173.1232618585	180
27	2303	189.47777318747	180
27	3559	308.88130390646	180
27	3594	320.07645559476	180
27	3792	355.67257968106	180
28	467	40.78007940416	39.78007940416
28	991	82.56366597236	81.56366597236
28	1581	131.16993260084	130.16993260084
28	2117	173.1232618585	172.1232618585
28	2303	189.47777318747	188.47777318747
28	3559	308.88130390646	307.88130390646
28	3594	320.07645559476	319.07645559476
28	3792	355.67257968106	354.67257968106
29	467	40.78007940416	39.78007940416
30	496	44.51214532595	180
30	967	79.95616135997	180
30	1170	99.46103371442	180
30	1350	110.21083894414	180
30	2042	166.02175264265	180
30	2183	180.1215008832	180
30	2568	205.09964441061	180
30	2795	225.72890112055	180
30	3008	245.9033951838	180
30	3271	264.42811426818	180
30	3371	278.64298912575	180
31	496	44.51214532595	43.51214532595
31	967	79.95616135997	78.95616135997
31	1170	99.46103371442	98.46103371442
31	1350	110.21083894414	109.21083894414
31	2042	166.02175264265	165.02175264265
31	2183	180.1215008832	179.1215008832
31	2568	205.09964441061	204.09964441061
31	2795	225.72890112055	224.72890112055
31	3008	245.9033951838	244.9033951838
31	3271	264.42811426818	263.42811426818
31	3371	278.64298912575	277.64298912575
32	496	44.51214532595	43.51214532595
33	705	54.98725453269	180
33	926	75.92282159713	180
33	1493	121.84475428302	180
33	1712	142.63356268865	180
33	2026	165.17637016711	180
33	2295	188.62569869024	180
33	2835	228.96550274099	180
33	3037	249.23727401177	180
33	3257	262.41532537731	180
34	705	54.98725453269	53.98725453269
34	926	75.92282159713	74.92282159713
34	1493	121.84475428302	120.84475428302
34	1712	142.63356268865	141.63356268865
34	2026	165.17637016711	164.17637016711
34	2295	188.62569869024	187.62569869024
34	2835	228.96550274099	227.96550274099
34	3037	249.23727401177	248.23727401177
34	3257	262.41532537731	261.41532537731
35	705	54.98725453269	53.98725453269
36	714	56.29204263426	180
36	1760	148.63712751987	180
36	3382	280.94395992212	180
36	3449	300.07652512501	180
36	3584	316.78300732031	180
36	3687	350.28460339393	180
37	714	56.29204263426	55.29204263426
37	1760	148.63712751987	147.63712751987
37	3382	280.94395992212	279.94395992212
37	3449	300.07652512501	299.07652512501
37	3584	316.78300732031	315.78300732031
37	3687	350.28460339393	349.28460339393
38	714	56.29204263426	55.29204263426
39	932	76.6925214691	180
39	1084	92.04616845994	180
39	1506	123.07037684311	180
39	1645	135.44565069199	180
39	2299	188.75796579117	180
39	2960	242.57699114331	180
40	932	76.6925214691	75.6925214691
40	1084	92.04616845994	91.04616845994
40	1506	123.07037684311	122.07037684311
40	1645	135.44565069199	134.44565069199
40	2299	188.75796579117	187.75796579117
40	2960	242.57699114331	241.57699114331
41	932	76.6925214691	75.6925214691
42	1502	122.9991787088	180
42	2327	191.54452133787	180
42	3877	394.14842717212	180
42	4038	416.5552749634	180
43	1502	122.9991787088	121.9991787088
43	2327	191.54452133787	190.54452133787
43	3877	394.14842717212	393.14842717212
43	4038	416.5552749634	415.5552749634
44	1502	122.9991787088	121.9991787088
45	1671	137.74283101492	180
45	2366	195.42315077329	180
45	3674	347.22891690967	180
45	3823	369.94558193198	180
45	3864	389.50541640225	180
45	4023	414.18353460206	180
46	1671	137.74283101492	136.74283101492
46	2366	195.42315077329	194.42315077329
46	3674	347.22891690967	346.22891690967
46	3823	369.94558193198	368.94558193198
46	3864	389.50541640225	388.50541640225
46	4023	414.18353460206	413.18353460206
47	1671	137.74283101492	136.74283101492
48	1738	145.69097262518	180
48	2217	182.08880369495	180
48	3024	248.1563246	180
48	3229	260.35776100065	180
48	3887	395.2680879977	180
48	4012	410.70564188705	180
48	4065	427.72027410394	180
48	4095	440.15195578979	180
48	4229	461.02510913568	180
48	4255	471.49283614885	180
49	1738	145.69097262518	144.69097262518
49	2217	182.08880369495	181.08880369495
49	3024	248.1563246	247.1563246
49	3229	260.35776100065	259.35776100065
49	3887	395.2680879977	394.2680879977
49	4012	410.70564188705	409.70564188705
49	4065	427.72027410394	426.72027410394
49	4095	440.15195578979	439.15195578979
49	4229	461.02510913568	460.02510913568
49	4255	471.49283614885	470.49283614885
50	1738	145.69097262518	144.69097262518
51	1916	152.96926424665	180
51	3218	258.91638426868	180
52	1916	152.96926424665	151.96926424665
52	3218	258.91638426868	257.91638426868
53	1916	152.96926424665	151.96926424665
54	2142	175.24628360865	180
54	2395	197.97952153946	180
54	2672	214.59810101886	180
54	2889	235.02810397877	180
54	3205	257.87751393851	180
54	3304	268.39185200624	180
54	3424	290.75979293084	180
55	2142	175.24628360865	174.24628360865
55	2395	197.97952153946	196.97952153946
55	2672	214.59810101886	213.59810101886
55	2889	235.02810397877	234.02810397877
55	3205	257.87751393851	256.87751393851
55	3304	268.39185200624	267.39185200624
55	3424	290.75979293084	289.75979293084
56	2142	175.24628360865	174.24628360865
57	2338	193.16854316918	180
57	3287	266.55596794154	180
57	3395	285.06403806911	180
58	2338	193.16854316918	192.16854316918
58	3287	266.55596794154	265.55596794154
58	3395	285.06403806911	284.06403806911
59	2338	193.16854316918	192.16854316918
60	2349	193.62799387172	180
60	2576	205.58579542072	180
60	3604	322.63139507364	180
60	3631	334.00458944941	180
61	2349	193.62799387172	192.62799387172
61	2576	205.58579542072	204.58579542072
61	3604	322.63139507364	321.63139507364
61	3631	334.00458944941	333.00458944941
62	2349	193.62799387172	192.62799387172
63	2357	194.05806038006	180
64	2357	194.05806038006	193.05806038006
65	2357	194.05806038006	193.05806038006
66	2382	196.95514546933	180
66	2715	220.54549679503	180
66	2899	235.87442326935	180
66	3188	256.77205916255	180
67	2382	196.95514546933	195.95514546933
67	2715	220.54549679503	219.54549679503
67	2899	235.87442326935	234.87442326935
67	3188	256.77205916255	255.77205916255
68	2382	196.95514546933	195.95514546933
69	3329	273.41693728912	180
70	3329	273.41693728912	272.41693728912
71	3329	273.41693728912	272.41693728912
72	3358	277.01025874348	180
73	3358	277.01025874348	276.01025874348
74	3358	277.01025874348	276.01025874348

