version 3
run General-6-20260527-01:33:09-720927
attr configname General
attr datetime 20260527-01:33:09
attr datetimef 20260527-013309
attr experiment General
attr inifile Test_MLModel_1.ini
attr iterationvars $0=27456
attr iterationvarsd 27456
attr iterationvarsf 27456-
attr measurement $0=27456
attr network Florasat.Test_Individual.Florasat_Individual_Sats
attr processid 720927
attr repetition 6
attr replication #6
attr resultdir results
attr runnumber 6
attr seedset 6
config *.satellite[0].NoradModule.raan 185
config *.stats_altitude 670
config *.stats_raan 185
config image-path ../../images:../../../../samples/inet4.5_2/images
config network Florasat.Test_Individual.Florasat_Individual_Sats
config rng-class cMersenneTwister
config *.**.result-recording-modes -
config **.result-recording-modes -
config **.statistic-recording true
config **.scalar-recording true
config **.vector-recording true
config **.vector-record-eventnumbers true
config repeat 10
config seed-0-mt 27456
config sim-time-limit 749s
config simtime-resolution -11
config **.stats_altitude 670
config **.stats_raan 185
config *.radioMedium.backgroundNoise.power -110dBm
config *.radioMedium.mediumLimitCache.centerFrequency 868MHz
config *.radioMedium.mediumLimitCache.maxTransmissionDuration 4s
config *.radioMedium.mediumLimitCache.minInterferenceTime 0s
config **.numSatellites 1
config *.satellite[*].mobilityType "\"Sat_Mob_SatelliteMobility_Standalone\""
config *.satellite[*].noradModuleType "\"Sat_Mob_NoradA\""
config **.satellite[*].**.initFromDisplayString false
config *.satellite[*].mobility.faceForward true
config *.satellite[*].mobility.updateInterval 20s
config *.satellite[*].NoradModule.satName "\"FLoRaSat\""
config *.satellite[*].NoradModule.satIndex -1
config *.satellite[*].NoradModule.baseYear 20
config *.satellite[*].NoradModule.baseDay 1.5
config *.satellite[*].NoradModule.planes 1
config *.satellite[*].NoradModule.satPerPlane 1
config *.satellite[*].NoradModule.eccentricity 0.000001
config *.satellite[*].NoradModule.inclination 98
config *.satellite[*].NoradModule.altitude 670
config *.satellite[0].NoradModule.raan 185
config *.satellite[0].NoradModule.meanAnomaly 195
config *.satellite[*].phyDSL.radio.receiver.enableCollisionOverlap true
config *.satellite[*].phyDSL.radio.receiver.minCollisionOverlap 0s
config *.satellite[*].phyDSL.radio.antenna.typename ConstantGainAntenna
config *.satellite[*].phyDSL.radio.antenna.mobilityModule "\"^.^.^.mobility\""
config *.satellite[*].phyISL.radio.antenna.mobilityModule "\"^.^.^.mobility\""
config *.satellite[*].phyGSL.radio.antenna.mobilityModule "\"^.^.^.mobility\""
config *.satellite[*].phyDSL.radio.antenna.gain 12dB
config *.satellite[*].net.routingType "\"Null_Routing\""
config *.terminal[*].net.routingType "\"Ter_Null_Routing\""
config *.**.numGroundLinks 40
config *.satellite[*].**.interfaceTableModule "\"\""
config **.radioMedium.typename LoRaMedium
config **.radioMedium.analogModel.typename LoRaAnalogModel
config **.intraPlaneIslDisabled false
config **.interPlaneIslDisabled false
config **.numTerminals 30
config *.terminal[*].phy.radio.antenna.mobilityModule "\"^.^.^.mob\""
config *.terminal[*].dlk.mac.interfaceTableModule "\"\""
config *.terminal[*].dlk.energySourceModule "\"\""
config *.terminal[*].dlk.mac.LoRaTP "intuniform(12, 14)"
config *.terminal[*].dlk.mac.LoRaSF "intuniform(10, 12)"
config *.terminal[*].dlk.mac.useMLBox true
config *.terminal[*].dlk.mac.mlBox.modelPath "\"/home/ylnner/Documents/omnet++/omnetpp-6.3.0/projects/florasat_v4_ult_routing/simulations/Test_Individual/mlmodels/transformer_scripted.pt\""
config **.numberOfPacketsToSend 0
config **.timeToFirstPacket 1s
config **.timeToNextPacket 50s
config *.terminal[0].mob.radius 0.0
config *.terminal[0].mob.centerLatitude 54.978
config *.terminal[0].mob.centerLongitude -1.617
config *.terminal[1].mob.radius 0.0
config *.terminal[1].mob.centerLatitude 52.630
config *.terminal[1].mob.centerLongitude -1.139
config *.terminal[2].mob.radius 0.0
config *.terminal[2].mob.centerLatitude 52.612
config *.terminal[2].mob.centerLongitude -6.295
config *.terminal[3].mob.radius 0.0
config *.terminal[3].mob.centerLatitude 47.243
config *.terminal[3].mob.centerLongitude 6.024
config *.terminal[4].mob.radius 0.0
config *.terminal[4].mob.centerLatitude 43.610
config *.terminal[4].mob.centerLongitude 3.876
config *.terminal[5].mob.radius 0.0
config *.terminal[5].mob.centerLatitude 49.443
config *.terminal[5].mob.centerLongitude 1.099
config *.terminal[6].mob.radius 0.0
config *.terminal[6].mob.centerLatitude 37.992
config *.terminal[6].mob.centerLongitude -1.130
config *.terminal[7].mob.radius 0.0
config *.terminal[7].mob.centerLatitude 40.965
config *.terminal[7].mob.centerLongitude -5.664
config *.terminal[8].mob.radius 0.0
config *.terminal[8].mob.centerLatitude 40.657
config *.terminal[8].mob.centerLongitude -7.914
config *.terminal[9].mob.radius 0.0
config *.terminal[9].mob.centerLatitude 51.340
config *.terminal[9].mob.centerLongitude 12.373
config *.terminal[10].mob.radius 0.0
config *.terminal[10].mob.centerLatitude 51.455
config *.terminal[10].mob.centerLongitude 7.011
config *.terminal[11].mob.radius 0.0
config *.terminal[11].mob.centerLatitude 49.452
config *.terminal[11].mob.centerLongitude 11.076
config *.terminal[12].mob.radius 0.0
config *.terminal[12].mob.centerLatitude 43.769
config *.terminal[12].mob.centerLongitude 11.255
config *.terminal[13].mob.radius 0.0
config *.terminal[13].mob.centerLatitude 41.117
config *.terminal[13].mob.centerLongitude 16.871
config *.terminal[14].mob.radius 0.0
config *.terminal[14].mob.centerLatitude 52.132
config *.terminal[14].mob.centerLongitude 5.291
config *.terminal[15].mob.radius 0.0
config *.terminal[15].mob.centerLatitude 50.411
config *.terminal[15].mob.centerLongitude 4.444
config *.terminal[16].mob.radius 0.0
config *.terminal[16].mob.centerLatitude 47.559
config *.terminal[16].mob.centerLongitude 7.588
config *.terminal[17].mob.radius 0.0
config *.terminal[17].mob.centerLatitude 55.403
config *.terminal[17].mob.centerLongitude 10.402
config *.terminal[18].mob.radius 0.0
config *.terminal[18].mob.centerLatitude 59.858
config *.terminal[18].mob.centerLongitude 17.638
config *.terminal[19].mob.radius 0.0
config *.terminal[19].mob.centerLatitude 60.451
config *.terminal[19].mob.centerLongitude 22.266
config *.terminal[20].mob.radius 0.0
config *.terminal[20].mob.centerLatitude 56.325
config *.terminal[20].mob.centerLongitude 22.349
config *.terminal[21].mob.radius 0.0
config *.terminal[21].mob.centerLatitude 49.883
config *.terminal[21].mob.centerLongitude 18.568
config *.terminal[22].mob.radius 0.0
config *.terminal[22].mob.centerLatitude 47.531
config *.terminal[22].mob.centerLongitude 21.627
config *.terminal[23].mob.radius 0.0
config *.terminal[23].mob.centerLatitude 44.179
config *.terminal[23].mob.centerLongitude 28.649
config *.terminal[24].mob.radius 0.0
config *.terminal[24].mob.centerLatitude 45.327
config *.terminal[24].mob.centerLongitude 14.442
config *.terminal[25].mob.radius 0.0
config *.terminal[25].mob.centerLatitude 40.694
config *.terminal[25].mob.centerLongitude 30.400
config *.terminal[26].mob.radius 0.0
config *.terminal[26].mob.centerLatitude 37.066
config *.terminal[26].mob.centerLongitude 37.383
config *.terminal[27].mob.radius 0.0
config *.terminal[27].mob.centerLatitude 64.836
config *.terminal[27].mob.centerLongitude -23.708
config *.terminal[28].mob.radius 0.0
config *.terminal[28].mob.centerLatitude 28.099
config *.terminal[28].mob.centerLongitude -17.113
config *.terminal[29].mob.radius 0.0
config *.terminal[29].mob.centerLatitude 34.921
config *.terminal[29].mob.centerLongitude 33.623
config **.numStations 3
config **.numStations 3
config *.station[0].mobility.latitude 55.752
config *.station[0].mobility.longitude 37.616
config *.station[0].cityName "\"Moscow\""
config *.station[0].groundStationId 7
config *.station[0].routerAddr "\"10.0.0.29\""
config *.station[0].serving "\"10.0.0.29\""
config *.station[1].mobility.latitude 28.652
config *.station[1].mobility.longitude 77.231
config *.station[1].cityName "\"Delhi\""
config *.station[1].groundStationId 11
config *.station[1].routerAddr "\"10.0.0.45\""
config *.station[1].serving "\"10.0.0.45\""
config *.station[2].mobility.latitude 25.35
config *.station[2].mobility.longitude 51.24
config *.station[2].cityName "\"Katar\""
config *.station[2].groundStationId 19
config *.station[2].routerAddr "\"10.0.0.77\""
config *.station[2].serving "\"10.0.0.77\""
config *.visualizer.canvasVisualizer.mediumVisualizer.typename ""
config *.visualizer.*.radioVisualizer.displayAntennaLobes true
config *.visualizer.*.dataLinkVisualizer.displayLinks true
config *.visualizer.*.mobilityVisualizer.displayMovementTrails true
config *.visualizer.*.mobilityVisualizer.movementTrailLineWidth 1
config *.visualizer.*.mobilityVisualizer.trailLength 3000
config **.ttxStart_max 30s
config **.ttxIdle_min 10s
config **.ttxIdle_max 25s
config **.Ntw 2
config **.Ntx 45
config **.ttwDuration 550s

vector 0 Florasat_Individual_Sats.satellite[0].dlkDSL.mac "Satellite Position when Repetition Received" ETV
vector 1 Florasat_Individual_Sats.satellite[0].dlkDSL.mac "Repetition Position for Node 283 at Satellite" ETV
vector 2 Florasat_Individual_Sats.satellite[0].dlkDSL.mac "All Nodes Repetition Generation Delay at Satellite" ETV
vector 3 Florasat_Individual_Sats.satellite[0].dlkDSL.mac "Repetition Generation Delay for Node 283 at Satellite" ETV
vector 4 Florasat_Individual_Sats.satellite[0].dlkDSL.mac "All Nodes Message Generation Delay at Satellite" ETV
vector 5 Florasat_Individual_Sats.satellite[0].dlkDSL.mac "Message Generation Delay for Node 283 at Satellite" ETV
vector 6 Florasat_Individual_Sats.satellite[0].net.packetHandler "packets received" ETV
vector 7 Florasat_Individual_Sats.satellite[0].net.packetHandler "dropped unroutable" ETV
vector 8 Florasat_Individual_Sats.satellite[0].net.packetHandler "packets dropped" ETV
vector 9 Florasat_Individual_Sats.satellite[0].dlkDSL.mac "Repetition Position for Node 358 at Satellite" ETV
vector 10 Florasat_Individual_Sats.satellite[0].dlkDSL.mac "Repetition Generation Delay for Node 358 at Satellite" ETV
vector 11 Florasat_Individual_Sats.satellite[0].dlkDSL.mac "Message Generation Delay for Node 358 at Satellite" ETV
vector 12 Florasat_Individual_Sats.satellite[0].dlkDSL.mac "Repetition Position for Node 73 at Satellite" ETV
vector 13 Florasat_Individual_Sats.satellite[0].dlkDSL.mac "Repetition Generation Delay for Node 73 at Satellite" ETV
vector 14 Florasat_Individual_Sats.satellite[0].dlkDSL.mac "Message Generation Delay for Node 73 at Satellite" ETV
vector 15 Florasat_Individual_Sats.satellite[0].dlkDSL.mac "Repetition Position for Node 88 at Satellite" ETV
vector 16 Florasat_Individual_Sats.satellite[0].dlkDSL.mac "Repetition Generation Delay for Node 88 at Satellite" ETV
vector 17 Florasat_Individual_Sats.satellite[0].dlkDSL.mac "Message Generation Delay for Node 88 at Satellite" ETV
vector 18 Florasat_Individual_Sats.satellite[0].dlkDSL.mac "Repetition Position for Node 313 at Satellite" ETV
vector 19 Florasat_Individual_Sats.satellite[0].dlkDSL.mac "Repetition Generation Delay for Node 313 at Satellite" ETV
vector 20 Florasat_Individual_Sats.satellite[0].dlkDSL.mac "Message Generation Delay for Node 313 at Satellite" ETV
vector 21 Florasat_Individual_Sats.satellite[0].dlkDSL.mac "Repetition Position for Node 328 at Satellite" ETV
vector 22 Florasat_Individual_Sats.satellite[0].dlkDSL.mac "Repetition Generation Delay for Node 328 at Satellite" ETV
vector 23 Florasat_Individual_Sats.satellite[0].dlkDSL.mac "Message Generation Delay for Node 328 at Satellite" ETV
vector 24 Florasat_Individual_Sats.satellite[0].dlkDSL.mac "Repetition Position for Node 58 at Satellite" ETV
vector 25 Florasat_Individual_Sats.satellite[0].dlkDSL.mac "Repetition Generation Delay for Node 58 at Satellite" ETV
vector 26 Florasat_Individual_Sats.satellite[0].dlkDSL.mac "Message Generation Delay for Node 58 at Satellite" ETV
vector 27 Florasat_Individual_Sats.satellite[0].dlkDSL.mac "Repetition Position for Node 193 at Satellite" ETV
vector 28 Florasat_Individual_Sats.satellite[0].dlkDSL.mac "Repetition Generation Delay for Node 193 at Satellite" ETV
vector 29 Florasat_Individual_Sats.satellite[0].dlkDSL.mac "Message Generation Delay for Node 193 at Satellite" ETV
vector 30 Florasat_Individual_Sats.satellite[0].dlkDSL.mac "Repetition Position for Node 343 at Satellite" ETV
vector 31 Florasat_Individual_Sats.satellite[0].dlkDSL.mac "Repetition Generation Delay for Node 343 at Satellite" ETV
vector 32 Florasat_Individual_Sats.satellite[0].dlkDSL.mac "Message Generation Delay for Node 343 at Satellite" ETV
vector 33 Florasat_Individual_Sats.satellite[0].dlkDSL.mac "Repetition Position for Node 118 at Satellite" ETV
vector 34 Florasat_Individual_Sats.satellite[0].dlkDSL.mac "Repetition Generation Delay for Node 118 at Satellite" ETV
vector 35 Florasat_Individual_Sats.satellite[0].dlkDSL.mac "Message Generation Delay for Node 118 at Satellite" ETV
vector 36 Florasat_Individual_Sats.satellite[0].dlkDSL.mac "Repetition Position for Node 268 at Satellite" ETV
vector 37 Florasat_Individual_Sats.satellite[0].dlkDSL.mac "Repetition Generation Delay for Node 268 at Satellite" ETV
vector 38 Florasat_Individual_Sats.satellite[0].dlkDSL.mac "Message Generation Delay for Node 268 at Satellite" ETV
vector 39 Florasat_Individual_Sats.satellite[0].dlkDSL.mac "Repetition Position for Node 238 at Satellite" ETV
vector 40 Florasat_Individual_Sats.satellite[0].dlkDSL.mac "Repetition Generation Delay for Node 238 at Satellite" ETV
vector 41 Florasat_Individual_Sats.satellite[0].dlkDSL.mac "Message Generation Delay for Node 238 at Satellite" ETV
vector 42 Florasat_Individual_Sats.satellite[0].dlkDSL.mac "Repetition Position for Node 103 at Satellite" ETV
vector 43 Florasat_Individual_Sats.satellite[0].dlkDSL.mac "Repetition Generation Delay for Node 103 at Satellite" ETV
vector 44 Florasat_Individual_Sats.satellite[0].dlkDSL.mac "Message Generation Delay for Node 103 at Satellite" ETV
vector 45 Florasat_Individual_Sats.satellite[0].dlkDSL.mac "Repetition Position for Node 433 at Satellite" ETV
vector 46 Florasat_Individual_Sats.satellite[0].dlkDSL.mac "Repetition Generation Delay for Node 433 at Satellite" ETV
vector 47 Florasat_Individual_Sats.satellite[0].dlkDSL.mac "Message Generation Delay for Node 433 at Satellite" ETV
vector 48 Florasat_Individual_Sats.satellite[0].dlkDSL.mac "Repetition Position for Node 208 at Satellite" ETV
vector 49 Florasat_Individual_Sats.satellite[0].dlkDSL.mac "Repetition Generation Delay for Node 208 at Satellite" ETV
vector 50 Florasat_Individual_Sats.satellite[0].dlkDSL.mac "Message Generation Delay for Node 208 at Satellite" ETV
vector 51 Florasat_Individual_Sats.satellite[0].dlkDSL.mac "Repetition Position for Node 133 at Satellite" ETV
vector 52 Florasat_Individual_Sats.satellite[0].dlkDSL.mac "Repetition Generation Delay for Node 133 at Satellite" ETV
vector 53 Florasat_Individual_Sats.satellite[0].dlkDSL.mac "Message Generation Delay for Node 133 at Satellite" ETV
vector 54 Florasat_Individual_Sats.satellite[0].dlkDSL.mac "Repetition Position for Node 388 at Satellite" ETV
vector 55 Florasat_Individual_Sats.satellite[0].dlkDSL.mac "Repetition Generation Delay for Node 388 at Satellite" ETV
vector 56 Florasat_Individual_Sats.satellite[0].dlkDSL.mac "Message Generation Delay for Node 388 at Satellite" ETV
vector 57 Florasat_Individual_Sats.satellite[0].dlkDSL.mac "Repetition Position for Node 418 at Satellite" ETV
vector 58 Florasat_Individual_Sats.satellite[0].dlkDSL.mac "Repetition Generation Delay for Node 418 at Satellite" ETV
vector 59 Florasat_Individual_Sats.satellite[0].dlkDSL.mac "Message Generation Delay for Node 418 at Satellite" ETV
vector 60 Florasat_Individual_Sats.satellite[0].dlkDSL.mac "Repetition Position for Node 373 at Satellite" ETV
vector 61 Florasat_Individual_Sats.satellite[0].dlkDSL.mac "Repetition Generation Delay for Node 373 at Satellite" ETV
vector 62 Florasat_Individual_Sats.satellite[0].dlkDSL.mac "Message Generation Delay for Node 373 at Satellite" ETV
vector 63 Florasat_Individual_Sats.satellite[0].dlkDSL.mac "Repetition Position for Node 223 at Satellite" ETV
vector 64 Florasat_Individual_Sats.satellite[0].dlkDSL.mac "Repetition Generation Delay for Node 223 at Satellite" ETV
vector 65 Florasat_Individual_Sats.satellite[0].dlkDSL.mac "Message Generation Delay for Node 223 at Satellite" ETV
vector 66 Florasat_Individual_Sats.satellite[0].dlkDSL.mac "Repetition Position for Node 253 at Satellite" ETV
vector 67 Florasat_Individual_Sats.satellite[0].dlkDSL.mac "Repetition Generation Delay for Node 253 at Satellite" ETV
vector 68 Florasat_Individual_Sats.satellite[0].dlkDSL.mac "Message Generation Delay for Node 253 at Satellite" ETV
vector 69 Florasat_Individual_Sats.satellite[0].dlkDSL.mac "Repetition Position for Node 403 at Satellite" ETV
vector 70 Florasat_Individual_Sats.satellite[0].dlkDSL.mac "Repetition Generation Delay for Node 403 at Satellite" ETV
vector 71 Florasat_Individual_Sats.satellite[0].dlkDSL.mac "Message Generation Delay for Node 403 at Satellite" ETV
vector 72 Florasat_Individual_Sats.satellite[0].dlkDSL.mac "Repetition Position for Node 298 at Satellite" ETV
vector 73 Florasat_Individual_Sats.satellite[0].dlkDSL.mac "Repetition Generation Delay for Node 298 at Satellite" ETV
vector 74 Florasat_Individual_Sats.satellite[0].dlkDSL.mac "Message Generation Delay for Node 298 at Satellite" ETV
0	154	8.53076672474	180
0	167	11.2048247571	180
0	186	13.19326571482	180
0	211	16.38968105488	180
0	230	18.71139786433	180
0	255	20.14148331474	180
0	368	30.86352227548	180
0	394	33.49742873166	180
0	405	34.82198492152	180
0	483	42.20434754951	180
0	500	43.03623350331	180
0	674	51.75612802378	180
0	750	60.75176081484	180
0	807	65.41218534804	180
0	820	66.00421997596	180
0	826	66.79283151113	180
0	876	71.50533489398	180
0	908	75.02334726685	180
0	916	76.08393738608	180
0	969	80.53317590028	180
0	1018	85.37991314888	180
0	1027	86.51413449197	180
0	1037	87.06168371479	180
0	1100	94.70925147975	180
0	1115	96.29802750767	180
0	1126	97.40158149683	180
0	1147	99.1129058978	180
0	1162	99.96035910205	180
0	1281	103.70462836525	180
0	1285	103.85242447354	180
0	1305	105.17490047256	180
0	1322	106.67018124232	180
0	1375	110.45096143492	180
0	1396	112.50558309469	180
0	1438	118.67846417804	180
0	1447	119.6976200118	180
0	1479	122.84461433993	180
0	1493	123.84374959105	180
0	1509	124.811245643	180
0	1517	125.85368379311	180
0	1521	126.33311509483	180
0	1565	129.25145664116	180
0	1580	130.34816605215	180
0	1595	131.38813760126	180
0	1607	132.94293995591	180
0	1628	136.25583714567	180
0	1645	138.68170014913	180
0	1671	140.08399180779	180
0	1697	141.8399792252	180
0	1713	142.73588378195	180
0	1718	142.95857315411	180
0	1723	143.23061641133	180
0	1757	146.35402750916	180
0	1761	146.50834412955	180
0	1771	148.02979865054	180
0	1901	152.37646542819	180
0	1908	153.76498410539	180
0	1938	157.23604588516	180
0	1943	157.96687661031	180
0	1970	161.26849688336	180
0	2009	163.18197609385	180
0	2021	164.4618535948	180
0	2036	165.74753631549	180
0	2051	166.80447730412	180
0	2056	166.92065919976	180
0	2077	168.54074735873	180
0	2081	168.64477292345	180
0	2090	170.09481586226	180
0	2097	170.75538530707	180
0	2180	179.16445246542	180
0	2195	180.93103760031	180
0	2201	181.17539113914	180
0	2214	182.61700923032	180
0	2218	182.93690331493	180
0	2234	185.28691350244	180
0	2244	185.92474099929	180
0	2254	186.21292497439	180
0	2264	186.6029188502	180
0	2290	189.75787413948	180
0	2305	190.57820854223	180
0	2353	194.7380219371	180
0	2357	194.85065226319	180
0	2397	198.18559598638	180
0	2416	199.16368494218	180
0	2447	200.88572044451	180
0	2572	205.06572738583	180
0	2598	206.86134638209	180
0	2617	207.93352973758	180
0	2629	208.50408522056	180
0	2633	208.9613636267	180
0	2657	213.4152498207	180
0	2670	215.55054968319	180
0	2684	217.35028551251	180
0	2704	217.92367241689	180
0	2719	219.29753255095	180
0	2727	219.7716089058	180
0	2765	222.0687727385	180
0	2778	223.37615542522	180
0	2793	224.47760587434	180
0	2797	224.51602963558	180
0	2811	226.44187488689	180
0	2819	226.93927058544	180
0	2837	229.85519566568	180
0	2870	231.7139712634	180
0	2878	232.000584586	180
0	2894	232.80059792279	180
0	2898	233.13572072417	180
0	2951	239.69567771413	180
0	2965	241.24358971831	180
0	2969	241.51294983906	180
0	2984	242.72688827887	180
0	2997	243.40250968447	180
0	3014	244.27960036848	180
0	3044	246.65555558975	180
0	3067	249.03417817645	180
0	3074	249.56292328718	180
0	3175	251.01020324153	180
0	3179	251.02946259177	180
0	3205	253.219557614	180
0	3218	253.69742640522	180
0	3222	253.81871786495	180
0	3228	254.66006598881	180
0	3246	256.70793608988	180
0	3256	257.62384517761	180
0	3261	258.04857307795	180
0	3285	262.9468707327	180
0	3299	264.3835052137	180
0	3305	265.93707776375	180
0	3319	266.91446994191	180
0	3361	272.32788718948	180
0	3372	273.17247672	180
0	3386	274.01617795339	180
0	3394	275.55310150355	180
0	3407	276.38260657196	180
0	3422	277.95965319841	180
0	3429	278.58623131507	180
0	3442	282.13307841673	180
0	3460	285.59687365292	180
0	3480	292.95232000121	180
0	3487	293.79083905478	180
0	3504	299.20829901801	180
0	3513	300.60895789641	180
0	3619	303.77567661636	180
0	3642	315.3927967883	180
0	3653	318.28354726189	180
0	3668	321.53480182928	180
0	3676	322.60061333634	180
0	3703	335.60185256591	180
0	3710	337.10268794552	180
0	3731	341.87849837801	180
0	3847	353.06060381993	180
0	3857	356.10366210917	180
0	3881	364.64653810249	180
0	3900	372.45081891403	180
0	3908	373.35820439332	180
0	3940	384.28032393781	180
0	3944	384.72974473322	180
0	3954	387.01438684711	180
0	3968	390.00719651874	180
0	3990	397.06816970315	180
0	3998	397.77588423803	180
0	4002	398.11169986128	180
0	4114	407.12365989634	180
0	4125	409.01527583479	180
0	4145	413.79802818937	180
0	4169	425.13724416491	180
0	4210	442.55231024228	180
0	4331	459.106257942	180
1	154	8.53076672474	180
1	1493	123.84374959105	180
1	2081	168.64477292345	180
1	2214	182.61700923032	180
1	2353	194.7380219371	180
1	2572	205.06572738583	180
1	2797	224.51602963558	180
1	3014	244.27960036848	180
2	154	8.53076672474	7.53076672474
2	167	11.2048247571	10.2048247571
2	186	13.19326571482	12.19326571482
2	211	16.38968105488	15.38968105488
2	230	18.71139786433	17.71139786433
2	255	20.14148331474	19.14148331474
2	368	30.86352227548	29.86352227548
2	394	33.49742873166	32.49742873166
2	405	34.82198492152	33.82198492152
2	483	42.20434754951	41.20434754951
2	500	43.03623350331	42.03623350331
2	674	51.75612802378	50.75612802378
2	750	60.75176081484	59.75176081484
2	807	65.41218534804	64.41218534804
2	820	66.00421997596	65.00421997596
2	826	66.79283151113	65.79283151113
2	876	71.50533489398	70.50533489398
2	908	75.02334726685	74.02334726685
2	916	76.08393738608	75.08393738608
2	969	80.53317590028	79.53317590028
2	1018	85.37991314888	84.37991314888
2	1027	86.51413449197	85.51413449197
2	1037	87.06168371479	86.06168371479
2	1100	94.70925147975	93.70925147975
2	1115	96.29802750767	95.29802750767
2	1126	97.40158149683	96.40158149683
2	1147	99.1129058978	98.1129058978
2	1162	99.96035910205	98.96035910205
2	1281	103.70462836525	102.70462836525
2	1285	103.85242447354	102.85242447354
2	1305	105.17490047256	104.17490047256
2	1322	106.67018124232	105.67018124232
2	1375	110.45096143492	109.45096143492
2	1396	112.50558309469	111.50558309469
2	1438	118.67846417804	117.67846417804
2	1447	119.6976200118	118.6976200118
2	1479	122.84461433993	121.84461433993
2	1493	123.84374959105	122.84374959105
2	1509	124.811245643	123.811245643
2	1517	125.85368379311	124.85368379311
2	1521	126.33311509483	125.33311509483
2	1565	129.25145664116	128.25145664116
2	1580	130.34816605215	129.34816605215
2	1595	131.38813760126	130.38813760126
2	1607	132.94293995591	131.94293995591
2	1628	136.25583714567	135.25583714567
2	1645	138.68170014913	137.68170014913
2	1671	140.08399180779	139.08399180779
2	1697	141.8399792252	140.8399792252
2	1713	142.73588378195	141.73588378195
2	1718	142.95857315411	141.95857315411
2	1723	143.23061641133	142.23061641133
2	1757	146.35402750916	145.35402750916
2	1761	146.50834412955	145.50834412955
2	1771	148.02979865054	147.02979865054
2	1901	152.37646542819	151.37646542819
2	1908	153.76498410539	152.76498410539
2	1938	157.23604588516	156.23604588516
2	1943	157.96687661031	156.96687661031
2	1970	161.26849688336	160.26849688336
2	2009	163.18197609385	162.18197609385
2	2021	164.4618535948	163.4618535948
2	2036	165.74753631549	164.74753631549
2	2051	166.80447730412	165.80447730412
2	2056	166.92065919976	165.92065919976
2	2077	168.54074735873	167.54074735873
2	2081	168.64477292345	167.64477292345
2	2090	170.09481586226	169.09481586226
2	2097	170.75538530707	169.75538530707
2	2180	179.16445246542	178.16445246542
2	2195	180.93103760031	179.93103760031
2	2201	181.17539113914	180.17539113914
2	2214	182.61700923032	181.61700923032
2	2218	182.93690331493	181.93690331493
2	2234	185.28691350244	184.28691350244
2	2244	185.92474099929	184.92474099929
2	2254	186.21292497439	185.21292497439
2	2264	186.6029188502	185.6029188502
2	2290	189.75787413948	188.75787413948
2	2305	190.57820854223	189.57820854223
2	2353	194.7380219371	193.7380219371
2	2357	194.85065226319	193.85065226319
2	2397	198.18559598638	197.18559598638
2	2416	199.16368494218	198.16368494218
2	2447	200.88572044451	199.88572044451
2	2572	205.06572738583	204.06572738583
2	2598	206.86134638209	205.86134638209
2	2617	207.93352973758	206.93352973758
2	2629	208.50408522056	207.50408522056
2	2633	208.9613636267	207.9613636267
2	2657	213.4152498207	212.4152498207
2	2670	215.55054968319	214.55054968319
2	2684	217.35028551251	216.35028551251
2	2704	217.92367241689	216.92367241689
2	2719	219.29753255095	218.29753255095
2	2727	219.7716089058	218.7716089058
2	2765	222.0687727385	221.0687727385
2	2778	223.37615542522	222.37615542522
2	2793	224.47760587434	223.47760587434
2	2797	224.51602963558	223.51602963558
2	2811	226.44187488689	225.44187488689
2	2819	226.93927058544	225.93927058544
2	2837	229.85519566568	228.85519566568
2	2870	231.7139712634	230.7139712634
2	2878	232.000584586	231.000584586
2	2894	232.80059792279	231.80059792279
2	2898	233.13572072417	232.13572072417
2	2951	239.69567771413	238.69567771413
2	2965	241.24358971831	240.24358971831
2	2969	241.51294983906	240.51294983906
2	2984	242.72688827887	241.72688827887
2	2997	243.40250968447	242.40250968447
2	3014	244.27960036848	243.27960036848
2	3044	246.65555558975	245.65555558975
2	3067	249.03417817645	248.03417817645
2	3074	249.56292328718	248.56292328718
2	3175	251.01020324153	250.01020324153
2	3179	251.02946259177	250.02946259177
2	3205	253.219557614	252.219557614
2	3218	253.69742640522	252.69742640522
2	3222	253.81871786495	252.81871786495
2	3228	254.66006598881	253.66006598881
2	3246	256.70793608988	255.70793608988
2	3256	257.62384517761	256.62384517761
2	3261	258.04857307795	257.04857307795
2	3285	262.9468707327	261.9468707327
2	3299	264.3835052137	263.3835052137
2	3305	265.93707776375	264.93707776375
2	3319	266.91446994191	265.91446994191
2	3361	272.32788718948	271.32788718948
2	3372	273.17247672	272.17247672
2	3386	274.01617795339	273.01617795339
2	3394	275.55310150355	274.55310150355
2	3407	276.38260657196	275.38260657196
2	3422	277.95965319841	276.95965319841
2	3429	278.58623131507	277.58623131507
2	3442	282.13307841673	281.13307841673
2	3460	285.59687365292	284.59687365292
2	3480	292.95232000121	291.95232000121
2	3487	293.79083905478	292.79083905478
2	3504	299.20829901801	298.20829901801
2	3513	300.60895789641	299.60895789641
2	3619	303.77567661636	302.77567661636
2	3642	315.3927967883	314.3927967883
2	3653	318.28354726189	317.28354726189
2	3668	321.53480182928	320.53480182928
2	3676	322.60061333634	321.60061333634
2	3703	335.60185256591	334.60185256591
2	3710	337.10268794552	336.10268794552
2	3731	341.87849837801	340.87849837801
2	3847	353.06060381993	352.06060381993
2	3857	356.10366210917	355.10366210917
2	3881	364.64653810249	363.64653810249
2	3900	372.45081891403	371.45081891403
2	3908	373.35820439332	372.35820439332
2	3940	384.28032393781	383.28032393781
2	3944	384.72974473322	383.72974473322
2	3954	387.01438684711	386.01438684711
2	3968	390.00719651874	389.00719651874
2	3990	397.06816970315	396.06816970315
2	3998	397.77588423803	396.77588423803
2	4002	398.11169986128	397.11169986128
2	4114	407.12365989634	406.12365989634
2	4125	409.01527583479	408.01527583479
2	4145	413.79802818937	412.79802818937
2	4169	425.13724416491	424.13724416491
2	4210	442.55231024228	441.55231024228
2	4331	459.106257942	458.106257942
3	154	8.53076672474	7.53076672474
3	1493	123.84374959105	122.84374959105
3	2081	168.64477292345	167.64477292345
3	2214	182.61700923032	181.61700923032
3	2353	194.7380219371	193.7380219371
3	2572	205.06572738583	204.06572738583
3	2797	224.51602963558	223.51602963558
3	3014	244.27960036848	243.27960036848
4	154	8.53076672474	7.53076672474
4	167	11.2048247571	10.2048247571
4	186	13.19326571482	12.19326571482
4	211	16.38968105488	15.38968105488
4	230	18.71139786433	17.71139786433
4	255	20.14148331474	19.14148331474
4	368	30.86352227548	29.86352227548
4	405	34.82198492152	33.82198492152
4	483	42.20434754951	41.20434754951
4	916	76.08393738608	75.08393738608
4	1018	85.37991314888	84.37991314888
4	1115	96.29802750767	95.29802750767
4	1281	103.70462836525	102.70462836525
4	1285	103.85242447354	102.85242447354
4	1396	112.50558309469	111.50558309469
4	1479	122.84461433993	121.84461433993
4	1628	136.25583714567	135.25583714567
4	1671	140.08399180779	139.08399180779
4	1713	142.73588378195	141.73588378195
4	1723	143.23061641133	142.23061641133
4	1761	146.50834412955	145.50834412955
4	2617	207.93352973758	206.93352973758
4	2670	215.55054968319	214.55054968319
5	154	8.53076672474	7.53076672474
6	155	8.53076672474	1
6	168	11.2048247571	2
6	187	13.19326571482	3
6	212	16.38968105488	4
6	231	18.71139786433	5
6	256	20.14148331474	6
6	369	30.86352227548	7
6	395	33.49742873166	8
6	406	34.82198492152	9
6	484	42.20434754951	10
6	501	43.03623350331	11
6	675	51.75612802378	12
6	751	60.75176081484	13
6	808	65.41218534804	14
6	821	66.00421997596	15
6	827	66.79283151113	16
6	877	71.50533489398	17
6	909	75.02334726685	18
6	917	76.08393738608	19
6	970	80.53317590028	20
6	1019	85.37991314888	21
6	1028	86.51413449197	22
6	1038	87.06168371479	23
6	1101	94.70925147975	24
6	1116	96.29802750767	25
6	1127	97.40158149683	26
6	1148	99.1129058978	27
6	1163	99.96035910205	28
6	1282	103.70462836525	29
6	1286	103.85242447354	30
6	1306	105.17490047256	31
6	1323	106.67018124232	32
6	1376	110.45096143492	33
6	1397	112.50558309469	34
6	1439	118.67846417804	35
6	1448	119.6976200118	36
6	1480	122.84461433993	37
6	1494	123.84374959105	38
6	1510	124.811245643	39
6	1518	125.85368379311	40
6	1522	126.33311509483	41
6	1566	129.25145664116	42
6	1581	130.34816605215	43
6	1596	131.38813760126	44
6	1608	132.94293995591	45
6	1629	136.25583714567	46
6	1646	138.68170014913	47
6	1672	140.08399180779	48
6	1698	141.8399792252	49
6	1714	142.73588378195	50
6	1719	142.95857315411	51
6	1724	143.23061641133	52
6	1758	146.35402750916	53
6	1762	146.50834412955	54
6	1772	148.02979865054	55
6	1902	152.37646542819	56
6	1909	153.76498410539	57
6	1939	157.23604588516	58
6	1944	157.96687661031	59
6	1971	161.26849688336	60
6	2010	163.18197609385	61
6	2022	164.4618535948	62
6	2037	165.74753631549	63
6	2052	166.80447730412	64
6	2057	166.92065919976	65
6	2078	168.54074735873	66
6	2082	168.64477292345	67
6	2091	170.09481586226	68
6	2098	170.75538530707	69
6	2181	179.16445246542	70
6	2196	180.93103760031	71
6	2202	181.17539113914	72
6	2215	182.61700923032	73
6	2219	182.93690331493	74
6	2235	185.28691350244	75
6	2245	185.92474099929	76
6	2255	186.21292497439	77
6	2265	186.6029188502	78
6	2291	189.75787413948	79
6	2306	190.57820854223	80
6	2354	194.7380219371	81
6	2358	194.85065226319	82
6	2398	198.18559598638	83
6	2417	199.16368494218	84
6	2448	200.88572044451	85
6	2573	205.06572738583	86
6	2599	206.86134638209	87
6	2618	207.93352973758	88
6	2630	208.50408522056	89
6	2634	208.9613636267	90
6	2658	213.4152498207	91
6	2671	215.55054968319	92
6	2685	217.35028551251	93
6	2705	217.92367241689	94
6	2720	219.29753255095	95
6	2728	219.7716089058	96
6	2766	222.0687727385	97
6	2779	223.37615542522	98
6	2794	224.47760587434	99
6	2798	224.51602963558	100
6	2812	226.44187488689	101
6	2820	226.93927058544	102
6	2838	229.85519566568	103
6	2871	231.7139712634	104
6	2879	232.000584586	105
6	2895	232.80059792279	106
6	2899	233.13572072417	107
6	2952	239.69567771413	108
6	2966	241.24358971831	109
6	2970	241.51294983906	110
6	2985	242.72688827887	111
6	2998	243.40250968447	112
6	3015	244.27960036848	113
6	3045	246.65555558975	114
6	3068	249.03417817645	115
6	3075	249.56292328718	116
6	3176	251.01020324153	117
6	3180	251.02946259177	118
6	3206	253.219557614	119
6	3219	253.69742640522	120
6	3223	253.81871786495	121
6	3229	254.66006598881	122
6	3247	256.70793608988	123
6	3257	257.62384517761	124
6	3262	258.04857307795	125
6	3286	262.9468707327	126
6	3300	264.3835052137	127
6	3306	265.93707776375	128
6	3320	266.91446994191	129
6	3362	272.32788718948	130
6	3373	273.17247672	131
6	3387	274.01617795339	132
6	3395	275.55310150355	133
6	3408	276.38260657196	134
6	3423	277.95965319841	135
6	3430	278.58623131507	136
6	3443	282.13307841673	137
6	3461	285.59687365292	138
6	3481	292.95232000121	139
6	3488	293.79083905478	140
6	3505	299.20829901801	141
6	3514	300.60895789641	142
6	3620	303.77567661636	143
6	3643	315.3927967883	144
6	3654	318.28354726189	145
6	3669	321.53480182928	146
6	3677	322.60061333634	147
6	3704	335.60185256591	148
6	3711	337.10268794552	149
6	3732	341.87849837801	150
6	3848	353.06060381993	151
6	3858	356.10366210917	152
6	3882	364.64653810249	153
6	3901	372.45081891403	154
6	3909	373.35820439332	155
6	3941	384.28032393781	156
6	3945	384.72974473322	157
6	3955	387.01438684711	158
6	3969	390.00719651874	159
6	3991	397.06816970315	160
6	3999	397.77588423803	161
6	4003	398.11169986128	162
6	4115	407.12365989634	163
6	4126	409.01527583479	164
6	4146	413.79802818937	165
6	4170	425.13724416491	166
6	4211	442.55231024228	167
6	4332	459.106257942	168
7	155	8.53076672474	1
7	168	11.2048247571	2
7	187	13.19326571482	3
7	212	16.38968105488	4
7	231	18.71139786433	5
7	256	20.14148331474	6
7	369	30.86352227548	7
7	395	33.49742873166	8
7	406	34.82198492152	9
7	484	42.20434754951	10
7	501	43.03623350331	11
7	675	51.75612802378	12
7	751	60.75176081484	13
7	808	65.41218534804	14
7	821	66.00421997596	15
7	827	66.79283151113	16
7	877	71.50533489398	17
7	909	75.02334726685	18
7	917	76.08393738608	19
7	970	80.53317590028	20
7	1019	85.37991314888	21
7	1028	86.51413449197	22
7	1038	87.06168371479	23
7	1101	94.70925147975	24
7	1116	96.29802750767	25
7	1127	97.40158149683	26
7	1148	99.1129058978	27
7	1163	99.96035910205	28
7	1282	103.70462836525	29
7	1286	103.85242447354	30
7	1306	105.17490047256	31
7	1323	106.67018124232	32
7	1376	110.45096143492	33
7	1397	112.50558309469	34
7	1439	118.67846417804	35
7	1448	119.6976200118	36
7	1480	122.84461433993	37
7	1494	123.84374959105	38
7	1510	124.811245643	39
7	1518	125.85368379311	40
7	1522	126.33311509483	41
7	1566	129.25145664116	42
7	1581	130.34816605215	43
7	1596	131.38813760126	44
7	1608	132.94293995591	45
7	1629	136.25583714567	46
7	1646	138.68170014913	47
7	1672	140.08399180779	48
7	1698	141.8399792252	49
7	1714	142.73588378195	50
7	1719	142.95857315411	51
7	1724	143.23061641133	52
7	1758	146.35402750916	53
7	1762	146.50834412955	54
7	1772	148.02979865054	55
7	1902	152.37646542819	56
7	1909	153.76498410539	57
7	1939	157.23604588516	58
7	1944	157.96687661031	59
7	1971	161.26849688336	60
7	2010	163.18197609385	61
7	2022	164.4618535948	62
7	2037	165.74753631549	63
7	2052	166.80447730412	64
7	2057	166.92065919976	65
7	2078	168.54074735873	66
7	2082	168.64477292345	67
7	2091	170.09481586226	68
7	2098	170.75538530707	69
7	2181	179.16445246542	70
7	2196	180.93103760031	71
7	2202	181.17539113914	72
7	2215	182.61700923032	73
7	2219	182.93690331493	74
7	2235	185.28691350244	75
7	2245	185.92474099929	76
7	2255	186.21292497439	77
7	2265	186.6029188502	78
7	2291	189.75787413948	79
7	2306	190.57820854223	80
7	2354	194.7380219371	81
7	2358	194.85065226319	82
7	2398	198.18559598638	83
7	2417	199.16368494218	84
7	2448	200.88572044451	85
7	2573	205.06572738583	86
7	2599	206.86134638209	87
7	2618	207.93352973758	88
7	2630	208.50408522056	89
7	2634	208.9613636267	90
7	2658	213.4152498207	91
7	2671	215.55054968319	92
7	2685	217.35028551251	93
7	2705	217.92367241689	94
7	2720	219.29753255095	95
7	2728	219.7716089058	96
7	2766	222.0687727385	97
7	2779	223.37615542522	98
7	2794	224.47760587434	99
7	2798	224.51602963558	100
7	2812	226.44187488689	101
7	2820	226.93927058544	102
7	2838	229.85519566568	103
7	2871	231.7139712634	104
7	2879	232.000584586	105
7	2895	232.80059792279	106
7	2899	233.13572072417	107
7	2952	239.69567771413	108
7	2966	241.24358971831	109
7	2970	241.51294983906	110
7	2985	242.72688827887	111
7	2998	243.40250968447	112
7	3015	244.27960036848	113
7	3045	246.65555558975	114
7	3068	249.03417817645	115
7	3075	249.56292328718	116
7	3176	251.01020324153	117
7	3180	251.02946259177	118
7	3206	253.219557614	119
7	3219	253.69742640522	120
7	3223	253.81871786495	121
7	3229	254.66006598881	122
7	3247	256.70793608988	123
7	3257	257.62384517761	124
7	3262	258.04857307795	125
7	3286	262.9468707327	126
7	3300	264.3835052137	127
7	3306	265.93707776375	128
7	3320	266.91446994191	129
7	3362	272.32788718948	130
7	3373	273.17247672	131
7	3387	274.01617795339	132
7	3395	275.55310150355	133
7	3408	276.38260657196	134
7	3423	277.95965319841	135
7	3430	278.58623131507	136
7	3443	282.13307841673	137
7	3461	285.59687365292	138
7	3481	292.95232000121	139
7	3488	293.79083905478	140
7	3505	299.20829901801	141
7	3514	300.60895789641	142
7	3620	303.77567661636	143
7	3643	315.3927967883	144
7	3654	318.28354726189	145
7	3669	321.53480182928	146
7	3677	322.60061333634	147
7	3704	335.60185256591	148
7	3711	337.10268794552	149
7	3732	341.87849837801	150
7	3848	353.06060381993	151
7	3858	356.10366210917	152
7	3882	364.64653810249	153
7	3901	372.45081891403	154
7	3909	373.35820439332	155
7	3941	384.28032393781	156
7	3945	384.72974473322	157
7	3955	387.01438684711	158
7	3969	390.00719651874	159
7	3991	397.06816970315	160
7	3999	397.77588423803	161
7	4003	398.11169986128	162
7	4115	407.12365989634	163
7	4126	409.01527583479	164
7	4146	413.79802818937	165
7	4170	425.13724416491	166
7	4211	442.55231024228	167
7	4332	459.106257942	168
8	155	8.53076672474	1
8	168	11.2048247571	2
8	187	13.19326571482	3
8	212	16.38968105488	4
8	231	18.71139786433	5
8	256	20.14148331474	6
8	369	30.86352227548	7
8	395	33.49742873166	8
8	406	34.82198492152	9
8	484	42.20434754951	10
8	501	43.03623350331	11
8	675	51.75612802378	12
8	751	60.75176081484	13
8	808	65.41218534804	14
8	821	66.00421997596	15
8	827	66.79283151113	16
8	877	71.50533489398	17
8	909	75.02334726685	18
8	917	76.08393738608	19
8	970	80.53317590028	20
8	1019	85.37991314888	21
8	1028	86.51413449197	22
8	1038	87.06168371479	23
8	1101	94.70925147975	24
8	1116	96.29802750767	25
8	1127	97.40158149683	26
8	1148	99.1129058978	27
8	1163	99.96035910205	28
8	1282	103.70462836525	29
8	1286	103.85242447354	30
8	1306	105.17490047256	31
8	1323	106.67018124232	32
8	1376	110.45096143492	33
8	1397	112.50558309469	34
8	1439	118.67846417804	35
8	1448	119.6976200118	36
8	1480	122.84461433993	37
8	1494	123.84374959105	38
8	1510	124.811245643	39
8	1518	125.85368379311	40
8	1522	126.33311509483	41
8	1566	129.25145664116	42
8	1581	130.34816605215	43
8	1596	131.38813760126	44
8	1608	132.94293995591	45
8	1629	136.25583714567	46
8	1646	138.68170014913	47
8	1672	140.08399180779	48
8	1698	141.8399792252	49
8	1714	142.73588378195	50
8	1719	142.95857315411	51
8	1724	143.23061641133	52
8	1758	146.35402750916	53
8	1762	146.50834412955	54
8	1772	148.02979865054	55
8	1902	152.37646542819	56
8	1909	153.76498410539	57
8	1939	157.23604588516	58
8	1944	157.96687661031	59
8	1971	161.26849688336	60
8	2010	163.18197609385	61
8	2022	164.4618535948	62
8	2037	165.74753631549	63
8	2052	166.80447730412	64
8	2057	166.92065919976	65
8	2078	168.54074735873	66
8	2082	168.64477292345	67
8	2091	170.09481586226	68
8	2098	170.75538530707	69
8	2181	179.16445246542	70
8	2196	180.93103760031	71
8	2202	181.17539113914	72
8	2215	182.61700923032	73
8	2219	182.93690331493	74
8	2235	185.28691350244	75
8	2245	185.92474099929	76
8	2255	186.21292497439	77
8	2265	186.6029188502	78
8	2291	189.75787413948	79
8	2306	190.57820854223	80
8	2354	194.7380219371	81
8	2358	194.85065226319	82
8	2398	198.18559598638	83
8	2417	199.16368494218	84
8	2448	200.88572044451	85
8	2573	205.06572738583	86
8	2599	206.86134638209	87
8	2618	207.93352973758	88
8	2630	208.50408522056	89
8	2634	208.9613636267	90
8	2658	213.4152498207	91
8	2671	215.55054968319	92
8	2685	217.35028551251	93
8	2705	217.92367241689	94
8	2720	219.29753255095	95
8	2728	219.7716089058	96
8	2766	222.0687727385	97
8	2779	223.37615542522	98
8	2794	224.47760587434	99
8	2798	224.51602963558	100
8	2812	226.44187488689	101
8	2820	226.93927058544	102
8	2838	229.85519566568	103
8	2871	231.7139712634	104
8	2879	232.000584586	105
8	2895	232.80059792279	106
8	2899	233.13572072417	107
8	2952	239.69567771413	108
8	2966	241.24358971831	109
8	2970	241.51294983906	110
8	2985	242.72688827887	111
8	2998	243.40250968447	112
8	3015	244.27960036848	113
8	3045	246.65555558975	114
8	3068	249.03417817645	115
8	3075	249.56292328718	116
8	3176	251.01020324153	117
8	3180	251.02946259177	118
8	3206	253.219557614	119
8	3219	253.69742640522	120
8	3223	253.81871786495	121
8	3229	254.66006598881	122
8	3247	256.70793608988	123
8	3257	257.62384517761	124
8	3262	258.04857307795	125
8	3286	262.9468707327	126
8	3300	264.3835052137	127
8	3306	265.93707776375	128
8	3320	266.91446994191	129
8	3362	272.32788718948	130
8	3373	273.17247672	131
8	3387	274.01617795339	132
8	3395	275.55310150355	133
8	3408	276.38260657196	134
8	3423	277.95965319841	135
8	3430	278.58623131507	136
8	3443	282.13307841673	137
8	3461	285.59687365292	138
8	3481	292.95232000121	139
8	3488	293.79083905478	140
8	3505	299.20829901801	141
8	3514	300.60895789641	142
8	3620	303.77567661636	143
8	3643	315.3927967883	144
8	3654	318.28354726189	145
8	3669	321.53480182928	146
8	3677	322.60061333634	147
8	3704	335.60185256591	148
8	3711	337.10268794552	149
8	3732	341.87849837801	150
8	3848	353.06060381993	151
8	3858	356.10366210917	152
8	3882	364.64653810249	153
8	3901	372.45081891403	154
8	3909	373.35820439332	155
8	3941	384.28032393781	156
8	3945	384.72974473322	157
8	3955	387.01438684711	158
8	3969	390.00719651874	159
8	3991	397.06816970315	160
8	3999	397.77588423803	161
8	4003	398.11169986128	162
8	4115	407.12365989634	163
8	4126	409.01527583479	164
8	4146	413.79802818937	165
8	4170	425.13724416491	166
8	4211	442.55231024228	167
8	4332	459.106257942	168
9	167	11.2048247571	180
9	1438	118.67846417804	180
9	1645	138.68170014913	180
9	2021	164.4618535948	180
9	2244	185.92474099929	180
9	2633	208.9613636267	180
9	2969	241.51294983906	180
9	3261	258.04857307795	180
10	167	11.2048247571	10.2048247571
10	1438	118.67846417804	117.67846417804
10	1645	138.68170014913	137.68170014913
10	2021	164.4618535948	163.4618535948
10	2244	185.92474099929	184.92474099929
10	2633	208.9613636267	207.9613636267
10	2969	241.51294983906	240.51294983906
10	3261	258.04857307795	257.04857307795
11	167	11.2048247571	10.2048247571
12	186	13.19326571482	180
12	394	33.49742873166	180
12	908	75.02334726685	180
12	1126	97.40158149683	180
12	2201	181.17539113914	180
12	2598	206.86134638209	180
12	2894	232.80059792279	180
12	3256	257.62384517761	180
13	186	13.19326571482	12.19326571482
13	394	33.49742873166	32.49742873166
13	908	75.02334726685	74.02334726685
13	1126	97.40158149683	96.40158149683
13	2201	181.17539113914	180.17539113914
13	2598	206.86134638209	205.86134638209
13	2894	232.80059792279	231.80059792279
13	3256	257.62384517761	256.62384517761
14	186	13.19326571482	12.19326571482
15	211	16.38968105488	180
15	1147	99.1129058978	180
15	1580	130.34816605215	180
15	2051	166.80447730412	180
15	2290	189.75787413948	180
15	2447	200.88572044451	180
15	2657	213.4152498207	180
15	3074	249.56292328718	180
15	3361	272.32788718948	180
16	211	16.38968105488	15.38968105488
16	1147	99.1129058978	98.1129058978
16	1580	130.34816605215	129.34816605215
16	2051	166.80447730412	165.80447730412
16	2290	189.75787413948	188.75787413948
16	2447	200.88572044451	199.88572044451
16	2657	213.4152498207	212.4152498207
16	3074	249.56292328718	248.56292328718
16	3361	272.32788718948	271.32788718948
17	211	16.38968105488	15.38968105488
18	230	18.71139786433	180
18	820	66.00421997596	180
18	969	80.53317590028	180
18	1305	105.17490047256	180
18	1509	124.811245643	180
18	2195	180.93103760031	180
18	2357	194.85065226319	180
18	2793	224.47760587434	180
18	3044	246.65555558975	180
18	3246	256.70793608988	180
18	3319	266.91446994191	180
18	3442	282.13307841673	180
19	230	18.71139786433	17.71139786433
19	820	66.00421997596	65.00421997596
19	969	80.53317590028	79.53317590028
19	1305	105.17490047256	104.17490047256
19	1509	124.811245643	123.811245643
19	2195	180.93103760031	179.93103760031
19	2357	194.85065226319	193.85065226319
19	2793	224.47760587434	223.47760587434
19	3044	246.65555558975	245.65555558975
19	3246	256.70793608988	255.70793608988
19	3319	266.91446994191	265.91446994191
19	3442	282.13307841673	281.13307841673
20	230	18.71139786433	17.71139786433
21	255	20.14148331474	180
21	500	43.03623350331	180
21	807	65.41218534804	180
21	1037	87.06168371479	180
21	1162	99.96035910205	180
21	1447	119.6976200118	180
21	1718	142.95857315411	180
21	2009	163.18197609385	180
21	2234	185.28691350244	180
21	2397	198.18559598638	180
21	2704	217.92367241689	180
21	2837	229.85519566568	180
21	2965	241.24358971831	180
21	3218	253.69742640522	180
21	3407	276.38260657196	180
22	255	20.14148331474	19.14148331474
22	500	43.03623350331	42.03623350331
22	807	65.41218534804	64.41218534804
22	1037	87.06168371479	86.06168371479
22	1162	99.96035910205	98.96035910205
22	1447	119.6976200118	118.6976200118
22	1718	142.95857315411	141.95857315411
22	2009	163.18197609385	162.18197609385
22	2234	185.28691350244	184.28691350244
22	2397	198.18559598638	197.18559598638
22	2704	217.92367241689	216.92367241689
22	2837	229.85519566568	228.85519566568
22	2965	241.24358971831	240.24358971831
22	3218	253.69742640522	252.69742640522
22	3407	276.38260657196	275.38260657196
23	255	20.14148331474	19.14148331474
24	368	30.86352227548	180
24	826	66.79283151113	180
24	1517	125.85368379311	180
24	1771	148.02979865054	180
24	2090	170.09481586226	180
24	2778	223.37615542522	180
24	3480	292.95232000121	180
24	3619	303.77567661636	180
25	368	30.86352227548	29.86352227548
25	826	66.79283151113	65.79283151113
25	1517	125.85368379311	124.85368379311
25	1771	148.02979865054	147.02979865054
25	2090	170.09481586226	169.09481586226
25	2778	223.37615542522	222.37615542522
25	3480	292.95232000121	291.95232000121
25	3619	303.77567661636	302.77567661636
26	368	30.86352227548	29.86352227548
27	405	34.82198492152	180
27	674	51.75612802378	180
27	1027	86.51413449197	180
27	2056	166.92065919976	180
27	2727	219.7716089058	180
27	2898	233.13572072417	180
27	3175	251.01020324153	180
27	3487	293.79083905478	180
27	3653	318.28354726189	180
27	3710	337.10268794552	180
27	3857	356.10366210917	180
28	405	34.82198492152	33.82198492152
28	674	51.75612802378	50.75612802378
28	1027	86.51413449197	85.51413449197
28	2056	166.92065919976	165.92065919976
28	2727	219.7716089058	218.7716089058
28	2898	233.13572072417	232.13572072417
28	3175	251.01020324153	250.01020324153
28	3487	293.79083905478	292.79083905478
28	3653	318.28354726189	317.28354726189
28	3710	337.10268794552	336.10268794552
28	3857	356.10366210917	355.10366210917
29	405	34.82198492152	33.82198492152
30	483	42.20434754951	180
30	750	60.75176081484	180
30	876	71.50533489398	180
30	1100	94.70925147975	180
30	1322	106.67018124232	180
30	1565	129.25145664116	180
30	1901	152.37646542819	180
30	2077	168.54074735873	180
30	2218	182.93690331493	180
30	2811	226.44187488689	180
30	3179	251.02946259177	180
30	3305	265.93707776375	180
30	3429	278.58623131507	180
31	483	42.20434754951	41.20434754951
31	750	60.75176081484	59.75176081484
31	876	71.50533489398	70.50533489398
31	1100	94.70925147975	93.70925147975
31	1322	106.67018124232	105.67018124232
31	1565	129.25145664116	128.25145664116
31	1901	152.37646542819	151.37646542819
31	2077	168.54074735873	167.54074735873
31	2218	182.93690331493	181.93690331493
31	2811	226.44187488689	225.44187488689
31	3179	251.02946259177	250.02946259177
31	3305	265.93707776375	264.93707776375
31	3429	278.58623131507	277.58623131507
32	483	42.20434754951	41.20434754951
33	916	76.08393738608	180
33	3067	249.03417817645	180
34	916	76.08393738608	75.08393738608
34	3067	249.03417817645	248.03417817645
35	916	76.08393738608	75.08393738608
36	1018	85.37991314888	180
36	1757	146.35402750916	180
36	2180	179.16445246542	180
36	2629	208.50408522056	180
36	3205	253.219557614	180
36	3372	273.17247672	180
37	1018	85.37991314888	84.37991314888
37	1757	146.35402750916	145.35402750916
37	2180	179.16445246542	178.16445246542
37	2629	208.50408522056	207.50408522056
37	3205	253.219557614	252.219557614
37	3372	273.17247672	272.17247672
38	1018	85.37991314888	84.37991314888
39	1115	96.29802750767	180
39	1375	110.45096143492	180
39	1595	131.38813760126	180
39	2719	219.29753255095	180
39	3881	364.64653810249	180
39	3954	387.01438684711	180
39	3998	397.77588423803	180
39	4125	409.01527583479	180
39	4169	425.13724416491	180
39	4210	442.55231024228	180
39	4331	459.106257942	180
40	1115	96.29802750767	95.29802750767
40	1375	110.45096143492	109.45096143492
40	1595	131.38813760126	130.38813760126
40	2719	219.29753255095	218.29753255095
40	3881	364.64653810249	363.64653810249
40	3954	387.01438684711	386.01438684711
40	3998	397.77588423803	396.77588423803
40	4125	409.01527583479	408.01527583479
40	4169	425.13724416491	424.13724416491
40	4210	442.55231024228	441.55231024228
40	4331	459.106257942	458.106257942
41	1115	96.29802750767	95.29802750767
42	1281	103.70462836525	180
42	1697	141.8399792252	180
42	1943	157.96687661031	180
42	2819	226.93927058544	180
43	1281	103.70462836525	102.70462836525
43	1697	141.8399792252	140.8399792252
43	1943	157.96687661031	156.96687661031
43	2819	226.93927058544	225.93927058544
44	1281	103.70462836525	102.70462836525
45	1285	103.85242447354	180
45	3228	254.66006598881	180
46	1285	103.85242447354	102.85242447354
46	3228	254.66006598881	253.66006598881
47	1285	103.85242447354	102.85242447354
48	1396	112.50558309469	180
48	1521	126.33311509483	180
48	1970	161.26849688336	180
48	2305	190.57820854223	180
49	1396	112.50558309469	111.50558309469
49	1521	126.33311509483	125.33311509483
49	1970	161.26849688336	160.26849688336
49	2305	190.57820854223	189.57820854223
50	1396	112.50558309469	111.50558309469
51	1479	122.84461433993	180
51	1607	132.94293995591	180
51	2765	222.0687727385	180
51	3299	264.3835052137	180
51	3422	277.95965319841	180
52	1479	122.84461433993	121.84461433993
52	1607	132.94293995591	131.94293995591
52	2765	222.0687727385	221.0687727385
52	3299	264.3835052137	263.3835052137
52	3422	277.95965319841	276.95965319841
53	1479	122.84461433993	121.84461433993
54	1628	136.25583714567	180
54	2097	170.75538530707	180
54	2264	186.6029188502	180
54	2951	239.69567771413	180
54	3386	274.01617795339	180
55	1628	136.25583714567	135.25583714567
55	2097	170.75538530707	169.75538530707
55	2264	186.6029188502	185.6029188502
55	2951	239.69567771413	238.69567771413
55	3386	274.01617795339	273.01617795339
56	1628	136.25583714567	135.25583714567
57	1671	140.08399180779	180
57	1908	153.76498410539	180
57	3222	253.81871786495	180
57	3968	390.00719651874	180
57	4145	413.79802818937	180
58	1671	140.08399180779	139.08399180779
58	1908	153.76498410539	152.76498410539
58	3222	253.81871786495	252.81871786495
58	3968	390.00719651874	389.00719651874
58	4145	413.79802818937	412.79802818937
59	1671	140.08399180779	139.08399180779
60	1713	142.73588378195	180
60	1938	157.23604588516	180
60	2997	243.40250968447	180
60	3394	275.55310150355	180
60	3460	285.59687365292	180
60	3504	299.20829901801	180
60	3676	322.60061333634	180
60	3731	341.87849837801	180
61	1713	142.73588378195	141.73588378195
61	1938	157.23604588516	156.23604588516
61	2997	243.40250968447	242.40250968447
61	3394	275.55310150355	274.55310150355
61	3460	285.59687365292	284.59687365292
61	3504	299.20829901801	298.20829901801
61	3676	322.60061333634	321.60061333634
61	3731	341.87849837801	340.87849837801
62	1713	142.73588378195	141.73588378195
63	1723	143.23061641133	180
63	2036	165.74753631549	180
63	2870	231.7139712634	180
63	2984	242.72688827887	180
63	3668	321.53480182928	180
63	3703	335.60185256591	180
63	3847	353.06060381993	180
63	3908	373.35820439332	180
63	3944	384.72974473322	180
63	3990	397.06816970315	180
63	4114	407.12365989634	180
64	1723	143.23061641133	142.23061641133
64	2036	165.74753631549	164.74753631549
64	2870	231.7139712634	230.7139712634
64	2984	242.72688827887	241.72688827887
64	3668	321.53480182928	320.53480182928
64	3703	335.60185256591	334.60185256591
64	3847	353.06060381993	352.06060381993
64	3908	373.35820439332	372.35820439332
64	3944	384.72974473322	383.72974473322
64	3990	397.06816970315	396.06816970315
64	4114	407.12365989634	406.12365989634
65	1723	143.23061641133	142.23061641133
66	1761	146.50834412955	180
66	2254	186.21292497439	180
66	2416	199.16368494218	180
66	2684	217.35028551251	180
66	3285	262.9468707327	180
67	1761	146.50834412955	145.50834412955
67	2254	186.21292497439	185.21292497439
67	2416	199.16368494218	198.16368494218
67	2684	217.35028551251	216.35028551251
67	3285	262.9468707327	261.9468707327
68	1761	146.50834412955	145.50834412955
69	2617	207.93352973758	180
69	2878	232.000584586	180
69	3513	300.60895789641	180
69	3642	315.3927967883	180
70	2617	207.93352973758	206.93352973758
70	2878	232.000584586	231.000584586
70	3513	300.60895789641	299.60895789641
70	3642	315.3927967883	314.3927967883
71	2617	207.93352973758	206.93352973758
72	2670	215.55054968319	180
72	3900	372.45081891403	180
72	3940	384.28032393781	180
72	4002	398.11169986128	180
73	2670	215.55054968319	214.55054968319
73	3900	372.45081891403	371.45081891403
73	3940	384.28032393781	383.28032393781
73	4002	398.11169986128	397.11169986128
74	2670	215.55054968319	214.55054968319

