version 3
run General-1-20260527-01:32:47-720927
attr configname General
attr datetime 20260527-01:32:47
attr datetimef 20260527-013247
attr experiment General
attr inifile Test_MLModel_1.ini
attr iterationvars $0=84242
attr iterationvarsd 84242
attr iterationvarsf 84242-
attr measurement $0=84242
attr network Florasat.Test_Individual.Florasat_Individual_Sats
attr processid 720927
attr repetition 1
attr replication #1
attr resultdir results
attr runnumber 1
attr seedset 1
config *.satellite[0].NoradModule.raan 185
config *.stats_altitude 670
config *.stats_raan 185
config image-path ../../images:../../../../samples/inet4.5_2/images
config network Florasat.Test_Individual.Florasat_Individual_Sats
config rng-class cMersenneTwister
config *.**.result-recording-modes -
config **.result-recording-modes -
config **.statistic-recording true
config **.scalar-recording true
config **.vector-recording true
config **.vector-record-eventnumbers true
config repeat 10
config seed-0-mt 84242
config sim-time-limit 749s
config simtime-resolution -11
config **.stats_altitude 670
config **.stats_raan 185
config *.radioMedium.backgroundNoise.power -110dBm
config *.radioMedium.mediumLimitCache.centerFrequency 868MHz
config *.radioMedium.mediumLimitCache.maxTransmissionDuration 4s
config *.radioMedium.mediumLimitCache.minInterferenceTime 0s
config **.numSatellites 1
config *.satellite[*].mobilityType "\"Sat_Mob_SatelliteMobility_Standalone\""
config *.satellite[*].noradModuleType "\"Sat_Mob_NoradA\""
config **.satellite[*].**.initFromDisplayString false
config *.satellite[*].mobility.faceForward true
config *.satellite[*].mobility.updateInterval 20s
config *.satellite[*].NoradModule.satName "\"FLoRaSat\""
config *.satellite[*].NoradModule.satIndex -1
config *.satellite[*].NoradModule.baseYear 20
config *.satellite[*].NoradModule.baseDay 1.5
config *.satellite[*].NoradModule.planes 1
config *.satellite[*].NoradModule.satPerPlane 1
config *.satellite[*].NoradModule.eccentricity 0.000001
config *.satellite[*].NoradModule.inclination 98
config *.satellite[*].NoradModule.altitude 670
config *.satellite[0].NoradModule.raan 185
config *.satellite[0].NoradModule.meanAnomaly 195
config *.satellite[*].phyDSL.radio.receiver.enableCollisionOverlap true
config *.satellite[*].phyDSL.radio.receiver.minCollisionOverlap 0s
config *.satellite[*].phyDSL.radio.antenna.typename ConstantGainAntenna
config *.satellite[*].phyDSL.radio.antenna.mobilityModule "\"^.^.^.mobility\""
config *.satellite[*].phyISL.radio.antenna.mobilityModule "\"^.^.^.mobility\""
config *.satellite[*].phyGSL.radio.antenna.mobilityModule "\"^.^.^.mobility\""
config *.satellite[*].phyDSL.radio.antenna.gain 12dB
config *.satellite[*].net.routingType "\"Null_Routing\""
config *.terminal[*].net.routingType "\"Ter_Null_Routing\""
config *.**.numGroundLinks 40
config *.satellite[*].**.interfaceTableModule "\"\""
config **.radioMedium.typename LoRaMedium
config **.radioMedium.analogModel.typename LoRaAnalogModel
config **.intraPlaneIslDisabled false
config **.interPlaneIslDisabled false
config **.numTerminals 30
config *.terminal[*].phy.radio.antenna.mobilityModule "\"^.^.^.mob\""
config *.terminal[*].dlk.mac.interfaceTableModule "\"\""
config *.terminal[*].dlk.energySourceModule "\"\""
config *.terminal[*].dlk.mac.LoRaTP "intuniform(12, 14)"
config *.terminal[*].dlk.mac.LoRaSF "intuniform(10, 12)"
config *.terminal[*].dlk.mac.useMLBox true
config *.terminal[*].dlk.mac.mlBox.modelPath "\"/home/ylnner/Documents/omnet++/omnetpp-6.3.0/projects/florasat_v4_ult_routing/simulations/Test_Individual/mlmodels/transformer_scripted.pt\""
config **.numberOfPacketsToSend 0
config **.timeToFirstPacket 1s
config **.timeToNextPacket 50s
config *.terminal[0].mob.radius 0.0
config *.terminal[0].mob.centerLatitude 54.978
config *.terminal[0].mob.centerLongitude -1.617
config *.terminal[1].mob.radius 0.0
config *.terminal[1].mob.centerLatitude 52.630
config *.terminal[1].mob.centerLongitude -1.139
config *.terminal[2].mob.radius 0.0
config *.terminal[2].mob.centerLatitude 52.612
config *.terminal[2].mob.centerLongitude -6.295
config *.terminal[3].mob.radius 0.0
config *.terminal[3].mob.centerLatitude 47.243
config *.terminal[3].mob.centerLongitude 6.024
config *.terminal[4].mob.radius 0.0
config *.terminal[4].mob.centerLatitude 43.610
config *.terminal[4].mob.centerLongitude 3.876
config *.terminal[5].mob.radius 0.0
config *.terminal[5].mob.centerLatitude 49.443
config *.terminal[5].mob.centerLongitude 1.099
config *.terminal[6].mob.radius 0.0
config *.terminal[6].mob.centerLatitude 37.992
config *.terminal[6].mob.centerLongitude -1.130
config *.terminal[7].mob.radius 0.0
config *.terminal[7].mob.centerLatitude 40.965
config *.terminal[7].mob.centerLongitude -5.664
config *.terminal[8].mob.radius 0.0
config *.terminal[8].mob.centerLatitude 40.657
config *.terminal[8].mob.centerLongitude -7.914
config *.terminal[9].mob.radius 0.0
config *.terminal[9].mob.centerLatitude 51.340
config *.terminal[9].mob.centerLongitude 12.373
config *.terminal[10].mob.radius 0.0
config *.terminal[10].mob.centerLatitude 51.455
config *.terminal[10].mob.centerLongitude 7.011
config *.terminal[11].mob.radius 0.0
config *.terminal[11].mob.centerLatitude 49.452
config *.terminal[11].mob.centerLongitude 11.076
config *.terminal[12].mob.radius 0.0
config *.terminal[12].mob.centerLatitude 43.769
config *.terminal[12].mob.centerLongitude 11.255
config *.terminal[13].mob.radius 0.0
config *.terminal[13].mob.centerLatitude 41.117
config *.terminal[13].mob.centerLongitude 16.871
config *.terminal[14].mob.radius 0.0
config *.terminal[14].mob.centerLatitude 52.132
config *.terminal[14].mob.centerLongitude 5.291
config *.terminal[15].mob.radius 0.0
config *.terminal[15].mob.centerLatitude 50.411
config *.terminal[15].mob.centerLongitude 4.444
config *.terminal[16].mob.radius 0.0
config *.terminal[16].mob.centerLatitude 47.559
config *.terminal[16].mob.centerLongitude 7.588
config *.terminal[17].mob.radius 0.0
config *.terminal[17].mob.centerLatitude 55.403
config *.terminal[17].mob.centerLongitude 10.402
config *.terminal[18].mob.radius 0.0
config *.terminal[18].mob.centerLatitude 59.858
config *.terminal[18].mob.centerLongitude 17.638
config *.terminal[19].mob.radius 0.0
config *.terminal[19].mob.centerLatitude 60.451
config *.terminal[19].mob.centerLongitude 22.266
config *.terminal[20].mob.radius 0.0
config *.terminal[20].mob.centerLatitude 56.325
config *.terminal[20].mob.centerLongitude 22.349
config *.terminal[21].mob.radius 0.0
config *.terminal[21].mob.centerLatitude 49.883
config *.terminal[21].mob.centerLongitude 18.568
config *.terminal[22].mob.radius 0.0
config *.terminal[22].mob.centerLatitude 47.531
config *.terminal[22].mob.centerLongitude 21.627
config *.terminal[23].mob.radius 0.0
config *.terminal[23].mob.centerLatitude 44.179
config *.terminal[23].mob.centerLongitude 28.649
config *.terminal[24].mob.radius 0.0
config *.terminal[24].mob.centerLatitude 45.327
config *.terminal[24].mob.centerLongitude 14.442
config *.terminal[25].mob.radius 0.0
config *.terminal[25].mob.centerLatitude 40.694
config *.terminal[25].mob.centerLongitude 30.400
config *.terminal[26].mob.radius 0.0
config *.terminal[26].mob.centerLatitude 37.066
config *.terminal[26].mob.centerLongitude 37.383
config *.terminal[27].mob.radius 0.0
config *.terminal[27].mob.centerLatitude 64.836
config *.terminal[27].mob.centerLongitude -23.708
config *.terminal[28].mob.radius 0.0
config *.terminal[28].mob.centerLatitude 28.099
config *.terminal[28].mob.centerLongitude -17.113
config *.terminal[29].mob.radius 0.0
config *.terminal[29].mob.centerLatitude 34.921
config *.terminal[29].mob.centerLongitude 33.623
config **.numStations 3
config **.numStations 3
config *.station[0].mobility.latitude 55.752
config *.station[0].mobility.longitude 37.616
config *.station[0].cityName "\"Moscow\""
config *.station[0].groundStationId 7
config *.station[0].routerAddr "\"10.0.0.29\""
config *.station[0].serving "\"10.0.0.29\""
config *.station[1].mobility.latitude 28.652
config *.station[1].mobility.longitude 77.231
config *.station[1].cityName "\"Delhi\""
config *.station[1].groundStationId 11
config *.station[1].routerAddr "\"10.0.0.45\""
config *.station[1].serving "\"10.0.0.45\""
config *.station[2].mobility.latitude 25.35
config *.station[2].mobility.longitude 51.24
config *.station[2].cityName "\"Katar\""
config *.station[2].groundStationId 19
config *.station[2].routerAddr "\"10.0.0.77\""
config *.station[2].serving "\"10.0.0.77\""
config *.visualizer.canvasVisualizer.mediumVisualizer.typename ""
config *.visualizer.*.radioVisualizer.displayAntennaLobes true
config *.visualizer.*.dataLinkVisualizer.displayLinks true
config *.visualizer.*.mobilityVisualizer.displayMovementTrails true
config *.visualizer.*.mobilityVisualizer.movementTrailLineWidth 1
config *.visualizer.*.mobilityVisualizer.trailLength 3000
config **.ttxStart_max 30s
config **.ttxIdle_min 10s
config **.ttxIdle_max 25s
config **.Ntw 2
config **.Ntx 45
config **.ttwDuration 550s

vector 0 Florasat_Individual_Sats.satellite[0].dlkDSL.mac "Satellite Position when Repetition Received" ETV
vector 1 Florasat_Individual_Sats.satellite[0].dlkDSL.mac "Repetition Position for Node 238 at Satellite" ETV
vector 2 Florasat_Individual_Sats.satellite[0].dlkDSL.mac "All Nodes Repetition Generation Delay at Satellite" ETV
vector 3 Florasat_Individual_Sats.satellite[0].dlkDSL.mac "Repetition Generation Delay for Node 238 at Satellite" ETV
vector 4 Florasat_Individual_Sats.satellite[0].dlkDSL.mac "All Nodes Message Generation Delay at Satellite" ETV
vector 5 Florasat_Individual_Sats.satellite[0].dlkDSL.mac "Message Generation Delay for Node 238 at Satellite" ETV
vector 6 Florasat_Individual_Sats.satellite[0].net.packetHandler "packets received" ETV
vector 7 Florasat_Individual_Sats.satellite[0].net.packetHandler "dropped unroutable" ETV
vector 8 Florasat_Individual_Sats.satellite[0].net.packetHandler "packets dropped" ETV
vector 9 Florasat_Individual_Sats.satellite[0].dlkDSL.mac "Repetition Position for Node 358 at Satellite" ETV
vector 10 Florasat_Individual_Sats.satellite[0].dlkDSL.mac "Repetition Generation Delay for Node 358 at Satellite" ETV
vector 11 Florasat_Individual_Sats.satellite[0].dlkDSL.mac "Message Generation Delay for Node 358 at Satellite" ETV
vector 12 Florasat_Individual_Sats.satellite[0].dlkDSL.mac "Repetition Position for Node 463 at Satellite" ETV
vector 13 Florasat_Individual_Sats.satellite[0].dlkDSL.mac "Repetition Generation Delay for Node 463 at Satellite" ETV
vector 14 Florasat_Individual_Sats.satellite[0].dlkDSL.mac "Message Generation Delay for Node 463 at Satellite" ETV
vector 15 Florasat_Individual_Sats.satellite[0].dlkDSL.mac "Repetition Position for Node 268 at Satellite" ETV
vector 16 Florasat_Individual_Sats.satellite[0].dlkDSL.mac "Repetition Generation Delay for Node 268 at Satellite" ETV
vector 17 Florasat_Individual_Sats.satellite[0].dlkDSL.mac "Message Generation Delay for Node 268 at Satellite" ETV
vector 18 Florasat_Individual_Sats.satellite[0].dlkDSL.mac "Repetition Position for Node 343 at Satellite" ETV
vector 19 Florasat_Individual_Sats.satellite[0].dlkDSL.mac "Repetition Generation Delay for Node 343 at Satellite" ETV
vector 20 Florasat_Individual_Sats.satellite[0].dlkDSL.mac "Message Generation Delay for Node 343 at Satellite" ETV
vector 21 Florasat_Individual_Sats.satellite[0].dlkDSL.mac "Repetition Position for Node 328 at Satellite" ETV
vector 22 Florasat_Individual_Sats.satellite[0].dlkDSL.mac "Repetition Generation Delay for Node 328 at Satellite" ETV
vector 23 Florasat_Individual_Sats.satellite[0].dlkDSL.mac "Message Generation Delay for Node 328 at Satellite" ETV
vector 24 Florasat_Individual_Sats.satellite[0].dlkDSL.mac "Repetition Position for Node 73 at Satellite" ETV
vector 25 Florasat_Individual_Sats.satellite[0].dlkDSL.mac "Repetition Generation Delay for Node 73 at Satellite" ETV
vector 26 Florasat_Individual_Sats.satellite[0].dlkDSL.mac "Message Generation Delay for Node 73 at Satellite" ETV
vector 27 Florasat_Individual_Sats.satellite[0].dlkDSL.mac "Repetition Position for Node 193 at Satellite" ETV
vector 28 Florasat_Individual_Sats.satellite[0].dlkDSL.mac "Repetition Generation Delay for Node 193 at Satellite" ETV
vector 29 Florasat_Individual_Sats.satellite[0].dlkDSL.mac "Message Generation Delay for Node 193 at Satellite" ETV
vector 30 Florasat_Individual_Sats.satellite[0].dlkDSL.mac "Repetition Position for Node 58 at Satellite" ETV
vector 31 Florasat_Individual_Sats.satellite[0].dlkDSL.mac "Repetition Generation Delay for Node 58 at Satellite" ETV
vector 32 Florasat_Individual_Sats.satellite[0].dlkDSL.mac "Message Generation Delay for Node 58 at Satellite" ETV
vector 33 Florasat_Individual_Sats.satellite[0].dlkDSL.mac "Repetition Position for Node 313 at Satellite" ETV
vector 34 Florasat_Individual_Sats.satellite[0].dlkDSL.mac "Repetition Generation Delay for Node 313 at Satellite" ETV
vector 35 Florasat_Individual_Sats.satellite[0].dlkDSL.mac "Message Generation Delay for Node 313 at Satellite" ETV
vector 36 Florasat_Individual_Sats.satellite[0].dlkDSL.mac "Repetition Position for Node 298 at Satellite" ETV
vector 37 Florasat_Individual_Sats.satellite[0].dlkDSL.mac "Repetition Generation Delay for Node 298 at Satellite" ETV
vector 38 Florasat_Individual_Sats.satellite[0].dlkDSL.mac "Message Generation Delay for Node 298 at Satellite" ETV
vector 39 Florasat_Individual_Sats.satellite[0].dlkDSL.mac "Repetition Position for Node 223 at Satellite" ETV
vector 40 Florasat_Individual_Sats.satellite[0].dlkDSL.mac "Repetition Generation Delay for Node 223 at Satellite" ETV
vector 41 Florasat_Individual_Sats.satellite[0].dlkDSL.mac "Message Generation Delay for Node 223 at Satellite" ETV
vector 42 Florasat_Individual_Sats.satellite[0].dlkDSL.mac "Repetition Position for Node 118 at Satellite" ETV
vector 43 Florasat_Individual_Sats.satellite[0].dlkDSL.mac "Repetition Generation Delay for Node 118 at Satellite" ETV
vector 44 Florasat_Individual_Sats.satellite[0].dlkDSL.mac "Message Generation Delay for Node 118 at Satellite" ETV
vector 45 Florasat_Individual_Sats.satellite[0].dlkDSL.mac "Repetition Position for Node 133 at Satellite" ETV
vector 46 Florasat_Individual_Sats.satellite[0].dlkDSL.mac "Repetition Generation Delay for Node 133 at Satellite" ETV
vector 47 Florasat_Individual_Sats.satellite[0].dlkDSL.mac "Message Generation Delay for Node 133 at Satellite" ETV
vector 48 Florasat_Individual_Sats.satellite[0].dlkDSL.mac "Repetition Position for Node 403 at Satellite" ETV
vector 49 Florasat_Individual_Sats.satellite[0].dlkDSL.mac "Repetition Generation Delay for Node 403 at Satellite" ETV
vector 50 Florasat_Individual_Sats.satellite[0].dlkDSL.mac "Message Generation Delay for Node 403 at Satellite" ETV
vector 51 Florasat_Individual_Sats.satellite[0].dlkDSL.mac "Repetition Position for Node 103 at Satellite" ETV
vector 52 Florasat_Individual_Sats.satellite[0].dlkDSL.mac "Repetition Generation Delay for Node 103 at Satellite" ETV
vector 53 Florasat_Individual_Sats.satellite[0].dlkDSL.mac "Message Generation Delay for Node 103 at Satellite" ETV
vector 54 Florasat_Individual_Sats.satellite[0].dlkDSL.mac "Repetition Position for Node 373 at Satellite" ETV
vector 55 Florasat_Individual_Sats.satellite[0].dlkDSL.mac "Repetition Generation Delay for Node 373 at Satellite" ETV
vector 56 Florasat_Individual_Sats.satellite[0].dlkDSL.mac "Message Generation Delay for Node 373 at Satellite" ETV
vector 57 Florasat_Individual_Sats.satellite[0].dlkDSL.mac "Repetition Position for Node 388 at Satellite" ETV
vector 58 Florasat_Individual_Sats.satellite[0].dlkDSL.mac "Repetition Generation Delay for Node 388 at Satellite" ETV
vector 59 Florasat_Individual_Sats.satellite[0].dlkDSL.mac "Message Generation Delay for Node 388 at Satellite" ETV
vector 60 Florasat_Individual_Sats.satellite[0].dlkDSL.mac "Repetition Position for Node 88 at Satellite" ETV
vector 61 Florasat_Individual_Sats.satellite[0].dlkDSL.mac "Repetition Generation Delay for Node 88 at Satellite" ETV
vector 62 Florasat_Individual_Sats.satellite[0].dlkDSL.mac "Message Generation Delay for Node 88 at Satellite" ETV
vector 63 Florasat_Individual_Sats.satellite[0].dlkDSL.mac "Repetition Position for Node 283 at Satellite" ETV
vector 64 Florasat_Individual_Sats.satellite[0].dlkDSL.mac "Repetition Generation Delay for Node 283 at Satellite" ETV
vector 65 Florasat_Individual_Sats.satellite[0].dlkDSL.mac "Message Generation Delay for Node 283 at Satellite" ETV
vector 66 Florasat_Individual_Sats.satellite[0].dlkDSL.mac "Repetition Position for Node 418 at Satellite" ETV
vector 67 Florasat_Individual_Sats.satellite[0].dlkDSL.mac "Repetition Generation Delay for Node 418 at Satellite" ETV
vector 68 Florasat_Individual_Sats.satellite[0].dlkDSL.mac "Message Generation Delay for Node 418 at Satellite" ETV
vector 69 Florasat_Individual_Sats.satellite[0].dlkDSL.mac "Repetition Position for Node 208 at Satellite" ETV
vector 70 Florasat_Individual_Sats.satellite[0].dlkDSL.mac "Repetition Generation Delay for Node 208 at Satellite" ETV
vector 71 Florasat_Individual_Sats.satellite[0].dlkDSL.mac "Message Generation Delay for Node 208 at Satellite" ETV
vector 72 Florasat_Individual_Sats.satellite[0].dlkDSL.mac "Repetition Position for Node 253 at Satellite" ETV
vector 73 Florasat_Individual_Sats.satellite[0].dlkDSL.mac "Repetition Generation Delay for Node 253 at Satellite" ETV
vector 74 Florasat_Individual_Sats.satellite[0].dlkDSL.mac "Message Generation Delay for Node 253 at Satellite" ETV
vector 75 Florasat_Individual_Sats.satellite[0].dlkDSL.mac "Repetition Position for Node 163 at Satellite" ETV
vector 76 Florasat_Individual_Sats.satellite[0].dlkDSL.mac "Repetition Generation Delay for Node 163 at Satellite" ETV
vector 77 Florasat_Individual_Sats.satellite[0].dlkDSL.mac "Message Generation Delay for Node 163 at Satellite" ETV
vector 78 Florasat_Individual_Sats.satellite[0].dlkDSL.mac "Repetition Position for Node 148 at Satellite" ETV
vector 79 Florasat_Individual_Sats.satellite[0].dlkDSL.mac "Repetition Generation Delay for Node 148 at Satellite" ETV
vector 80 Florasat_Individual_Sats.satellite[0].dlkDSL.mac "Message Generation Delay for Node 148 at Satellite" ETV
vector 81 Florasat_Individual_Sats.satellite[0].dlkDSL.mac "Repetition Position for Node 433 at Satellite" ETV
vector 82 Florasat_Individual_Sats.satellite[0].dlkDSL.mac "Repetition Generation Delay for Node 433 at Satellite" ETV
vector 83 Florasat_Individual_Sats.satellite[0].dlkDSL.mac "Message Generation Delay for Node 433 at Satellite" ETV
0	142	5.62590601601	180
0	239	21.74690295936	180
0	269	24.69192750732	180
0	308	28.70385345764	180
0	417	39.88199818757	180
0	484	46.75840632388	180
0	617	51.36892985547	180
0	627	52.31903038047	180
0	631	52.55653043039	180
0	668	56.09687398364	180
0	696	58.23321137287	180
0	726	60.59396596606	180
0	746	63.47337313922	180
0	796	68.19950461848	180
0	857	72.19385442849	180
0	872	73.44476819847	180
0	906	77.51478648739	180
0	915	79.00737189566	180
0	1027	89.65544754233	180
0	1041	90.88050827145	180
0	1049	91.76213860622	180
0	1078	94.71317156626	180
0	1102	96.6837499056	180
0	1123	98.1472292886	180
0	1152	100.73976244074	180
0	1249	101.84195984614	180
0	1258	102.26896476912	180
0	1270	104.26359575767	180
0	1332	109.25925619998	180
0	1354	110.76181171804	180
0	1361	111.53358266166	180
0	1377	112.22817230965	180
0	1381	112.52030479353	180
0	1390	113.17622795695	180
0	1404	115.26076504322	180
0	1408	115.4351191583	180
0	1452	120.19159234472	180
0	1482	124.13459095866	180
0	1492	124.88460981928	180
0	1555	130.69925316837	180
0	1562	131.27924776347	180
0	1573	132.5217705451	180
0	1583	133.82698439704	180
0	1597	135.03817967935	180
0	1601	135.03952505592	180
0	1616	136.61437060976	180
0	1630	137.57712087356	180
0	1636	139.14837591796	180
0	1709	145.15948454144	180
0	1716	145.63177040772	180
0	1737	147.43945291144	180
0	1758	149.4338677986	180
0	1763	149.7828815115	180
0	1873	152.06517634972	180
0	1877	152.13006985368	180
0	1891	153.63732656873	180
0	1902	154.45702438456	180
0	1912	154.94627629699	180
0	1944	156.89488114667	180
0	1963	159.53550585759	180
0	1975	160.39557653124	180
0	1994	161.32061245497	180
0	2013	162.70353912254	180
0	2020	163.42385632213	180
0	2053	166.53403278071	180
0	2061	166.9970951794	180
0	2065	167.35933294747	180
0	2085	169.78303018835	180
0	2106	171.68310624658	180
0	2126	172.39301030169	180
0	2175	177.04112222943	180
0	2184	178.30169982569	180
0	2195	178.93909635133	180
0	2199	179.39959084791	180
0	2240	183.54463384947	180
0	2276	186.79724499178	180
0	2286	187.07174180638	180
0	2290	187.2626877622	180
0	2322	191.5954890178	180
0	2327	191.8476085689	180
0	2345	193.59177890344	180
0	2358	194.18457304006	180
0	2366	194.53898006643	180
0	2379	195.28018109496	180
0	2408	198.01162195619	180
0	2532	202.36458575996	180
0	2542	203.28508234461	180
0	2552	203.85296007133	180
0	2570	206.44700449485	180
0	2599	209.39641140229	180
0	2614	210.94083284706	180
0	2636	212.55252392441	180
0	2640	212.70525827183	180
0	2688	216.43633016367	180
0	2699	216.83944625892	180
0	2703	217.2147016012	180
0	2712	218.73851432059	180
0	2727	219.65362610988	180
0	2753	222.13071288884	180
0	2769	223.37224285564	180
0	2785	224.45016128821	180
0	2812	227.30178455352	180
0	2820	227.74554184748	180
0	2841	229.02654217848	180
0	2881	233.97071729176	180
0	2889	234.63638468473	180
0	2893	235.00372042525	180
0	2913	236.11892230686	180
0	2918	237.56629293184	180
0	2928	238.87101180612	180
0	2947	240.22100816541	180
0	2958	241.39197677238	180
0	2969	242.29273043683	180
0	2973	242.6577147894	180
0	2984	243.12418251643	180
0	3000	245.03478227176	180
0	3014	245.92531667201	180
0	3031	246.93665984765	180
0	3040	247.35277506634	180
0	3050	249.55334316338	180
0	3155	251.50822973753	180
0	3159	251.71303214732	180
0	3169	252.53189762415	180
0	3173	252.74279349711	180
0	3186	253.27461858042	180
0	3223	256.79411291554	180
0	3231	257.56767692373	180
0	3235	257.63138000032	180
0	3254	261.58943327837	180
0	3262	261.81625882727	180
0	3269	262.03994532226	180
0	3279	262.5895132962	180
0	3299	264.49940306594	180
0	3351	270.26818332257	180
0	3369	272.98782044499	180
0	3397	279.1746169315	180
0	3411	280.87876263251	180
0	3431	283.73636496545	180
0	3458	287.39578507552	180
0	3469	288.53436418454	180
0	3473	288.74641918442	180
0	3488	292.49604471488	180
0	3501	296.32650947724	180
0	3510	297.17810071947	180
0	3622	303.23204102753	180
0	3626	303.3107948128	180
0	3636	306.94409322753	180
0	3664	317.59821147835	180
0	3705	332.3680194974	180
0	3838	351.37195643331	180
0	3869	361.83794605955	180
0	3878	363.7173504405	180
0	3886	365.16791279538	180
0	3912	375.47395248143	180
0	3925	379.68294531683	180
0	3939	383.04097984779	180
0	3970	396.76440382137	180
0	3975	396.83766929377	180
0	4092	406.21371276073	180
0	4116	416.97692849318	180
0	4133	421.67087994029	180
0	4153	428.7455974507	180
0	4173	436.4674493226	180
0	4200	448.08555611869	180
0	4209	449.48203511515	180
0	4344	471.3476237443	180
1	142	5.62590601601	180
1	1636	139.14837591796	180
1	3939	383.04097984779	180
1	4092	406.21371276073	180
1	4133	421.67087994029	180
1	4173	436.4674493226	180
1	4209	449.48203511515	180
1	4344	471.3476237443	180
2	142	5.62590601601	4.62590601601
2	239	21.74690295936	20.74690295936
2	269	24.69192750732	23.69192750732
2	308	28.70385345764	27.70385345764
2	417	39.88199818757	38.88199818757
2	484	46.75840632388	45.75840632388
2	617	51.36892985547	50.36892985547
2	627	52.31903038047	51.31903038047
2	631	52.55653043039	51.55653043039
2	668	56.09687398364	55.09687398364
2	696	58.23321137287	57.23321137287
2	726	60.59396596606	59.59396596606
2	746	63.47337313922	62.47337313922
2	796	68.19950461848	67.19950461848
2	857	72.19385442849	71.19385442849
2	872	73.44476819847	72.44476819847
2	906	77.51478648739	76.51478648739
2	915	79.00737189566	78.00737189566
2	1027	89.65544754233	88.65544754233
2	1041	90.88050827145	89.88050827145
2	1049	91.76213860622	90.76213860622
2	1078	94.71317156626	93.71317156626
2	1102	96.6837499056	95.6837499056
2	1123	98.1472292886	97.1472292886
2	1152	100.73976244074	99.73976244074
2	1249	101.84195984614	100.84195984614
2	1258	102.26896476912	101.26896476912
2	1270	104.26359575767	103.26359575767
2	1332	109.25925619998	108.25925619998
2	1354	110.76181171804	109.76181171804
2	1361	111.53358266166	110.53358266166
2	1377	112.22817230965	111.22817230965
2	1381	112.52030479353	111.52030479353
2	1390	113.17622795695	112.17622795695
2	1404	115.26076504322	114.26076504322
2	1408	115.4351191583	114.4351191583
2	1452	120.19159234472	119.19159234472
2	1482	124.13459095866	123.13459095866
2	1492	124.88460981928	123.88460981928
2	1555	130.69925316837	129.69925316837
2	1562	131.27924776347	130.27924776347
2	1573	132.5217705451	131.5217705451
2	1583	133.82698439704	132.82698439704
2	1597	135.03817967935	134.03817967935
2	1601	135.03952505592	134.03952505592
2	1616	136.61437060976	135.61437060976
2	1630	137.57712087356	136.57712087356
2	1636	139.14837591796	138.14837591796
2	1709	145.15948454144	144.15948454144
2	1716	145.63177040772	144.63177040772
2	1737	147.43945291144	146.43945291144
2	1758	149.4338677986	148.4338677986
2	1763	149.7828815115	148.7828815115
2	1873	152.06517634972	151.06517634972
2	1877	152.13006985368	151.13006985368
2	1891	153.63732656873	152.63732656873
2	1902	154.45702438456	153.45702438456
2	1912	154.94627629699	153.94627629699
2	1944	156.89488114667	155.89488114667
2	1963	159.53550585759	158.53550585759
2	1975	160.39557653124	159.39557653124
2	1994	161.32061245497	160.32061245497
2	2013	162.70353912254	161.70353912254
2	2020	163.42385632213	162.42385632213
2	2053	166.53403278071	165.53403278071
2	2061	166.9970951794	165.9970951794
2	2065	167.35933294747	166.35933294747
2	2085	169.78303018835	168.78303018835
2	2106	171.68310624658	170.68310624658
2	2126	172.39301030169	171.39301030169
2	2175	177.04112222943	176.04112222943
2	2184	178.30169982569	177.30169982569
2	2195	178.93909635133	177.93909635133
2	2199	179.39959084791	178.39959084791
2	2240	183.54463384947	182.54463384947
2	2276	186.79724499178	185.79724499178
2	2286	187.07174180638	186.07174180638
2	2290	187.2626877622	186.2626877622
2	2322	191.5954890178	190.5954890178
2	2327	191.8476085689	190.8476085689
2	2345	193.59177890344	192.59177890344
2	2358	194.18457304006	193.18457304006
2	2366	194.53898006643	193.53898006643
2	2379	195.28018109496	194.28018109496
2	2408	198.01162195619	197.01162195619
2	2532	202.36458575996	201.36458575996
2	2542	203.28508234461	202.28508234461
2	2552	203.85296007133	202.85296007133
2	2570	206.44700449485	205.44700449485
2	2599	209.39641140229	208.39641140229
2	2614	210.94083284706	209.94083284706
2	2636	212.55252392441	211.55252392441
2	2640	212.70525827183	211.70525827183
2	2688	216.43633016367	215.43633016367
2	2699	216.83944625892	215.83944625892
2	2703	217.2147016012	216.2147016012
2	2712	218.73851432059	217.73851432059
2	2727	219.65362610988	218.65362610988
2	2753	222.13071288884	221.13071288884
2	2769	223.37224285564	222.37224285564
2	2785	224.45016128821	223.45016128821
2	2812	227.30178455352	226.30178455352
2	2820	227.74554184748	226.74554184748
2	2841	229.02654217848	228.02654217848
2	2881	233.97071729176	232.97071729176
2	2889	234.63638468473	233.63638468473
2	2893	235.00372042525	234.00372042525
2	2913	236.11892230686	235.11892230686
2	2918	237.56629293184	236.56629293184
2	2928	238.87101180612	237.87101180612
2	2947	240.22100816541	239.22100816541
2	2958	241.39197677238	240.39197677238
2	2969	242.29273043683	241.29273043683
2	2973	242.6577147894	241.6577147894
2	2984	243.12418251643	242.12418251643
2	3000	245.03478227176	244.03478227176
2	3014	245.92531667201	244.92531667201
2	3031	246.93665984765	245.93665984765
2	3040	247.35277506634	246.35277506634
2	3050	249.55334316338	248.55334316338
2	3155	251.50822973753	250.50822973753
2	3159	251.71303214732	250.71303214732
2	3169	252.53189762415	251.53189762415
2	3173	252.74279349711	251.74279349711
2	3186	253.27461858042	252.27461858042
2	3223	256.79411291554	255.79411291554
2	3231	257.56767692373	256.56767692373
2	3235	257.63138000032	256.63138000032
2	3254	261.58943327837	260.58943327837
2	3262	261.81625882727	260.81625882727
2	3269	262.03994532226	261.03994532226
2	3279	262.5895132962	261.5895132962
2	3299	264.49940306594	263.49940306594
2	3351	270.26818332257	269.26818332257
2	3369	272.98782044499	271.98782044499
2	3397	279.1746169315	278.1746169315
2	3411	280.87876263251	279.87876263251
2	3431	283.73636496545	282.73636496545
2	3458	287.39578507552	286.39578507552
2	3469	288.53436418454	287.53436418454
2	3473	288.74641918442	287.74641918442
2	3488	292.49604471488	291.49604471488
2	3501	296.32650947724	295.32650947724
2	3510	297.17810071947	296.17810071947
2	3622	303.23204102753	302.23204102753
2	3626	303.3107948128	302.3107948128
2	3636	306.94409322753	305.94409322753
2	3664	317.59821147835	316.59821147835
2	3705	332.3680194974	331.3680194974
2	3838	351.37195643331	350.37195643331
2	3869	361.83794605955	360.83794605955
2	3878	363.7173504405	362.7173504405
2	3886	365.16791279538	364.16791279538
2	3912	375.47395248143	374.47395248143
2	3925	379.68294531683	378.68294531683
2	3939	383.04097984779	382.04097984779
2	3970	396.76440382137	395.76440382137
2	3975	396.83766929377	395.83766929377
2	4092	406.21371276073	405.21371276073
2	4116	416.97692849318	415.97692849318
2	4133	421.67087994029	420.67087994029
2	4153	428.7455974507	427.7455974507
2	4173	436.4674493226	435.4674493226
2	4200	448.08555611869	447.08555611869
2	4209	449.48203511515	448.48203511515
2	4344	471.3476237443	470.3476237443
3	142	5.62590601601	4.62590601601
3	1636	139.14837591796	138.14837591796
3	3939	383.04097984779	382.04097984779
3	4092	406.21371276073	405.21371276073
3	4133	421.67087994029	420.67087994029
3	4173	436.4674493226	435.4674493226
3	4209	449.48203511515	448.48203511515
3	4344	471.3476237443	470.3476237443
4	142	5.62590601601	4.62590601601
4	239	21.74690295936	20.74690295936
4	269	24.69192750732	23.69192750732
4	308	28.70385345764	27.70385345764
4	417	39.88199818757	38.88199818757
4	484	46.75840632388	45.75840632388
4	627	52.31903038047	51.31903038047
4	668	56.09687398364	55.09687398364
4	696	58.23321137287	57.23321137287
4	1027	89.65544754233	88.65544754233
4	1049	91.76213860622	90.76213860622
4	1123	98.1472292886	97.1472292886
4	1270	104.26359575767	103.26359575767
4	1354	110.76181171804	109.76181171804
4	1404	115.26076504322	114.26076504322
4	1562	131.27924776347	130.27924776347
4	1716	145.63177040772	144.63177040772
4	1737	147.43945291144	146.43945291144
4	1963	159.53550585759	158.53550585759
4	2013	162.70353912254	161.70353912254
4	2020	163.42385632213	162.42385632213
4	2085	169.78303018835	168.78303018835
4	2276	186.79724499178	185.79724499178
4	2969	242.29273043683	241.29273043683
4	3050	249.55334316338	248.55334316338
4	3469	288.53436418454	287.53436418454
5	142	5.62590601601	4.62590601601
6	143	5.62590601601	1
6	240	21.74690295936	2
6	270	24.69192750732	3
6	309	28.70385345764	4
6	418	39.88199818757	5
6	485	46.75840632388	6
6	618	51.36892985547	7
6	628	52.31903038047	8
6	632	52.55653043039	9
6	669	56.09687398364	10
6	697	58.23321137287	11
6	727	60.59396596606	12
6	747	63.47337313922	13
6	797	68.19950461848	14
6	858	72.19385442849	15
6	873	73.44476819847	16
6	907	77.51478648739	17
6	916	79.00737189566	18
6	1028	89.65544754233	19
6	1042	90.88050827145	20
6	1050	91.76213860622	21
6	1079	94.71317156626	22
6	1103	96.6837499056	23
6	1124	98.1472292886	24
6	1153	100.73976244074	25
6	1250	101.84195984614	26
6	1259	102.26896476912	27
6	1271	104.26359575767	28
6	1333	109.25925619998	29
6	1355	110.76181171804	30
6	1362	111.53358266166	31
6	1378	112.22817230965	32
6	1382	112.52030479353	33
6	1391	113.17622795695	34
6	1405	115.26076504322	35
6	1409	115.4351191583	36
6	1453	120.19159234472	37
6	1483	124.13459095866	38
6	1493	124.88460981928	39
6	1556	130.69925316837	40
6	1563	131.27924776347	41
6	1574	132.5217705451	42
6	1584	133.82698439704	43
6	1598	135.03817967935	44
6	1602	135.03952505592	45
6	1617	136.61437060976	46
6	1631	137.57712087356	47
6	1637	139.14837591796	48
6	1710	145.15948454144	49
6	1717	145.63177040772	50
6	1738	147.43945291144	51
6	1759	149.4338677986	52
6	1764	149.7828815115	53
6	1874	152.06517634972	54
6	1878	152.13006985368	55
6	1892	153.63732656873	56
6	1903	154.45702438456	57
6	1913	154.94627629699	58
6	1945	156.89488114667	59
6	1964	159.53550585759	60
6	1976	160.39557653124	61
6	1995	161.32061245497	62
6	2014	162.70353912254	63
6	2021	163.42385632213	64
6	2054	166.53403278071	65
6	2062	166.9970951794	66
6	2066	167.35933294747	67
6	2086	169.78303018835	68
6	2107	171.68310624658	69
6	2127	172.39301030169	70
6	2176	177.04112222943	71
6	2185	178.30169982569	72
6	2196	178.93909635133	73
6	2200	179.39959084791	74
6	2241	183.54463384947	75
6	2277	186.79724499178	76
6	2287	187.07174180638	77
6	2291	187.2626877622	78
6	2323	191.5954890178	79
6	2328	191.8476085689	80
6	2346	193.59177890344	81
6	2359	194.18457304006	82
6	2367	194.53898006643	83
6	2380	195.28018109496	84
6	2409	198.01162195619	85
6	2533	202.36458575996	86
6	2543	203.28508234461	87
6	2553	203.85296007133	88
6	2571	206.44700449485	89
6	2600	209.39641140229	90
6	2615	210.94083284706	91
6	2637	212.55252392441	92
6	2641	212.70525827183	93
6	2689	216.43633016367	94
6	2700	216.83944625892	95
6	2704	217.2147016012	96
6	2713	218.73851432059	97
6	2728	219.65362610988	98
6	2754	222.13071288884	99
6	2770	223.37224285564	100
6	2786	224.45016128821	101
6	2813	227.30178455352	102
6	2821	227.74554184748	103
6	2842	229.02654217848	104
6	2882	233.97071729176	105
6	2890	234.63638468473	106
6	2894	235.00372042525	107
6	2914	236.11892230686	108
6	2919	237.56629293184	109
6	2929	238.87101180612	110
6	2948	240.22100816541	111
6	2959	241.39197677238	112
6	2970	242.29273043683	113
6	2974	242.6577147894	114
6	2985	243.12418251643	115
6	3001	245.03478227176	116
6	3015	245.92531667201	117
6	3032	246.93665984765	118
6	3041	247.35277506634	119
6	3051	249.55334316338	120
6	3156	251.50822973753	121
6	3160	251.71303214732	122
6	3170	252.53189762415	123
6	3174	252.74279349711	124
6	3187	253.27461858042	125
6	3224	256.79411291554	126
6	3232	257.56767692373	127
6	3236	257.63138000032	128
6	3255	261.58943327837	129
6	3263	261.81625882727	130
6	3270	262.03994532226	131
6	3280	262.5895132962	132
6	3300	264.49940306594	133
6	3352	270.26818332257	134
6	3370	272.98782044499	135
6	3398	279.1746169315	136
6	3412	280.87876263251	137
6	3432	283.73636496545	138
6	3459	287.39578507552	139
6	3470	288.53436418454	140
6	3474	288.74641918442	141
6	3489	292.49604471488	142
6	3502	296.32650947724	143
6	3511	297.17810071947	144
6	3623	303.23204102753	145
6	3627	303.3107948128	146
6	3637	306.94409322753	147
6	3665	317.59821147835	148
6	3706	332.3680194974	149
6	3839	351.37195643331	150
6	3870	361.83794605955	151
6	3879	363.7173504405	152
6	3887	365.16791279538	153
6	3913	375.47395248143	154
6	3926	379.68294531683	155
6	3940	383.04097984779	156
6	3971	396.76440382137	157
6	3976	396.83766929377	158
6	4093	406.21371276073	159
6	4117	416.97692849318	160
6	4134	421.67087994029	161
6	4154	428.7455974507	162
6	4174	436.4674493226	163
6	4201	448.08555611869	164
6	4210	449.48203511515	165
6	4345	471.3476237443	166
7	143	5.62590601601	1
7	240	21.74690295936	2
7	270	24.69192750732	3
7	309	28.70385345764	4
7	418	39.88199818757	5
7	485	46.75840632388	6
7	618	51.36892985547	7
7	628	52.31903038047	8
7	632	52.55653043039	9
7	669	56.09687398364	10
7	697	58.23321137287	11
7	727	60.59396596606	12
7	747	63.47337313922	13
7	797	68.19950461848	14
7	858	72.19385442849	15
7	873	73.44476819847	16
7	907	77.51478648739	17
7	916	79.00737189566	18
7	1028	89.65544754233	19
7	1042	90.88050827145	20
7	1050	91.76213860622	21
7	1079	94.71317156626	22
7	1103	96.6837499056	23
7	1124	98.1472292886	24
7	1153	100.73976244074	25
7	1250	101.84195984614	26
7	1259	102.26896476912	27
7	1271	104.26359575767	28
7	1333	109.25925619998	29
7	1355	110.76181171804	30
7	1362	111.53358266166	31
7	1378	112.22817230965	32
7	1382	112.52030479353	33
7	1391	113.17622795695	34
7	1405	115.26076504322	35
7	1409	115.4351191583	36
7	1453	120.19159234472	37
7	1483	124.13459095866	38
7	1493	124.88460981928	39
7	1556	130.69925316837	40
7	1563	131.27924776347	41
7	1574	132.5217705451	42
7	1584	133.82698439704	43
7	1598	135.03817967935	44
7	1602	135.03952505592	45
7	1617	136.61437060976	46
7	1631	137.57712087356	47
7	1637	139.14837591796	48
7	1710	145.15948454144	49
7	1717	145.63177040772	50
7	1738	147.43945291144	51
7	1759	149.4338677986	52
7	1764	149.7828815115	53
7	1874	152.06517634972	54
7	1878	152.13006985368	55
7	1892	153.63732656873	56
7	1903	154.45702438456	57
7	1913	154.94627629699	58
7	1945	156.89488114667	59
7	1964	159.53550585759	60
7	1976	160.39557653124	61
7	1995	161.32061245497	62
7	2014	162.70353912254	63
7	2021	163.42385632213	64
7	2054	166.53403278071	65
7	2062	166.9970951794	66
7	2066	167.35933294747	67
7	2086	169.78303018835	68
7	2107	171.68310624658	69
7	2127	172.39301030169	70
7	2176	177.04112222943	71
7	2185	178.30169982569	72
7	2196	178.93909635133	73
7	2200	179.39959084791	74
7	2241	183.54463384947	75
7	2277	186.79724499178	76
7	2287	187.07174180638	77
7	2291	187.2626877622	78
7	2323	191.5954890178	79
7	2328	191.8476085689	80
7	2346	193.59177890344	81
7	2359	194.18457304006	82
7	2367	194.53898006643	83
7	2380	195.28018109496	84
7	2409	198.01162195619	85
7	2533	202.36458575996	86
7	2543	203.28508234461	87
7	2553	203.85296007133	88
7	2571	206.44700449485	89
7	2600	209.39641140229	90
7	2615	210.94083284706	91
7	2637	212.55252392441	92
7	2641	212.70525827183	93
7	2689	216.43633016367	94
7	2700	216.83944625892	95
7	2704	217.2147016012	96
7	2713	218.73851432059	97
7	2728	219.65362610988	98
7	2754	222.13071288884	99
7	2770	223.37224285564	100
7	2786	224.45016128821	101
7	2813	227.30178455352	102
7	2821	227.74554184748	103
7	2842	229.02654217848	104
7	2882	233.97071729176	105
7	2890	234.63638468473	106
7	2894	235.00372042525	107
7	2914	236.11892230686	108
7	2919	237.56629293184	109
7	2929	238.87101180612	110
7	2948	240.22100816541	111
7	2959	241.39197677238	112
7	2970	242.29273043683	113
7	2974	242.6577147894	114
7	2985	243.12418251643	115
7	3001	245.03478227176	116
7	3015	245.92531667201	117
7	3032	246.93665984765	118
7	3041	247.35277506634	119
7	3051	249.55334316338	120
7	3156	251.50822973753	121
7	3160	251.71303214732	122
7	3170	252.53189762415	123
7	3174	252.74279349711	124
7	3187	253.27461858042	125
7	3224	256.79411291554	126
7	3232	257.56767692373	127
7	3236	257.63138000032	128
7	3255	261.58943327837	129
7	3263	261.81625882727	130
7	3270	262.03994532226	131
7	3280	262.5895132962	132
7	3300	264.49940306594	133
7	3352	270.26818332257	134
7	3370	272.98782044499	135
7	3398	279.1746169315	136
7	3412	280.87876263251	137
7	3432	283.73636496545	138
7	3459	287.39578507552	139
7	3470	288.53436418454	140
7	3474	288.74641918442	141
7	3489	292.49604471488	142
7	3502	296.32650947724	143
7	3511	297.17810071947	144
7	3623	303.23204102753	145
7	3627	303.3107948128	146
7	3637	306.94409322753	147
7	3665	317.59821147835	148
7	3706	332.3680194974	149
7	3839	351.37195643331	150
7	3870	361.83794605955	151
7	3879	363.7173504405	152
7	3887	365.16791279538	153
7	3913	375.47395248143	154
7	3926	379.68294531683	155
7	3940	383.04097984779	156
7	3971	396.76440382137	157
7	3976	396.83766929377	158
7	4093	406.21371276073	159
7	4117	416.97692849318	160
7	4134	421.67087994029	161
7	4154	428.7455974507	162
7	4174	436.4674493226	163
7	4201	448.08555611869	164
7	4210	449.48203511515	165
7	4345	471.3476237443	166
8	143	5.62590601601	1
8	240	21.74690295936	2
8	270	24.69192750732	3
8	309	28.70385345764	4
8	418	39.88199818757	5
8	485	46.75840632388	6
8	618	51.36892985547	7
8	628	52.31903038047	8
8	632	52.55653043039	9
8	669	56.09687398364	10
8	697	58.23321137287	11
8	727	60.59396596606	12
8	747	63.47337313922	13
8	797	68.19950461848	14
8	858	72.19385442849	15
8	873	73.44476819847	16
8	907	77.51478648739	17
8	916	79.00737189566	18
8	1028	89.65544754233	19
8	1042	90.88050827145	20
8	1050	91.76213860622	21
8	1079	94.71317156626	22
8	1103	96.6837499056	23
8	1124	98.1472292886	24
8	1153	100.73976244074	25
8	1250	101.84195984614	26
8	1259	102.26896476912	27
8	1271	104.26359575767	28
8	1333	109.25925619998	29
8	1355	110.76181171804	30
8	1362	111.53358266166	31
8	1378	112.22817230965	32
8	1382	112.52030479353	33
8	1391	113.17622795695	34
8	1405	115.26076504322	35
8	1409	115.4351191583	36
8	1453	120.19159234472	37
8	1483	124.13459095866	38
8	1493	124.88460981928	39
8	1556	130.69925316837	40
8	1563	131.27924776347	41
8	1574	132.5217705451	42
8	1584	133.82698439704	43
8	1598	135.03817967935	44
8	1602	135.03952505592	45
8	1617	136.61437060976	46
8	1631	137.57712087356	47
8	1637	139.14837591796	48
8	1710	145.15948454144	49
8	1717	145.63177040772	50
8	1738	147.43945291144	51
8	1759	149.4338677986	52
8	1764	149.7828815115	53
8	1874	152.06517634972	54
8	1878	152.13006985368	55
8	1892	153.63732656873	56
8	1903	154.45702438456	57
8	1913	154.94627629699	58
8	1945	156.89488114667	59
8	1964	159.53550585759	60
8	1976	160.39557653124	61
8	1995	161.32061245497	62
8	2014	162.70353912254	63
8	2021	163.42385632213	64
8	2054	166.53403278071	65
8	2062	166.9970951794	66
8	2066	167.35933294747	67
8	2086	169.78303018835	68
8	2107	171.68310624658	69
8	2127	172.39301030169	70
8	2176	177.04112222943	71
8	2185	178.30169982569	72
8	2196	178.93909635133	73
8	2200	179.39959084791	74
8	2241	183.54463384947	75
8	2277	186.79724499178	76
8	2287	187.07174180638	77
8	2291	187.2626877622	78
8	2323	191.5954890178	79
8	2328	191.8476085689	80
8	2346	193.59177890344	81
8	2359	194.18457304006	82
8	2367	194.53898006643	83
8	2380	195.28018109496	84
8	2409	198.01162195619	85
8	2533	202.36458575996	86
8	2543	203.28508234461	87
8	2553	203.85296007133	88
8	2571	206.44700449485	89
8	2600	209.39641140229	90
8	2615	210.94083284706	91
8	2637	212.55252392441	92
8	2641	212.70525827183	93
8	2689	216.43633016367	94
8	2700	216.83944625892	95
8	2704	217.2147016012	96
8	2713	218.73851432059	97
8	2728	219.65362610988	98
8	2754	222.13071288884	99
8	2770	223.37224285564	100
8	2786	224.45016128821	101
8	2813	227.30178455352	102
8	2821	227.74554184748	103
8	2842	229.02654217848	104
8	2882	233.97071729176	105
8	2890	234.63638468473	106
8	2894	235.00372042525	107
8	2914	236.11892230686	108
8	2919	237.56629293184	109
8	2929	238.87101180612	110
8	2948	240.22100816541	111
8	2959	241.39197677238	112
8	2970	242.29273043683	113
8	2974	242.6577147894	114
8	2985	243.12418251643	115
8	3001	245.03478227176	116
8	3015	245.92531667201	117
8	3032	246.93665984765	118
8	3041	247.35277506634	119
8	3051	249.55334316338	120
8	3156	251.50822973753	121
8	3160	251.71303214732	122
8	3170	252.53189762415	123
8	3174	252.74279349711	124
8	3187	253.27461858042	125
8	3224	256.79411291554	126
8	3232	257.56767692373	127
8	3236	257.63138000032	128
8	3255	261.58943327837	129
8	3263	261.81625882727	130
8	3270	262.03994532226	131
8	3280	262.5895132962	132
8	3300	264.49940306594	133
8	3352	270.26818332257	134
8	3370	272.98782044499	135
8	3398	279.1746169315	136
8	3412	280.87876263251	137
8	3432	283.73636496545	138
8	3459	287.39578507552	139
8	3470	288.53436418454	140
8	3474	288.74641918442	141
8	3489	292.49604471488	142
8	3502	296.32650947724	143
8	3511	297.17810071947	144
8	3623	303.23204102753	145
8	3627	303.3107948128	146
8	3637	306.94409322753	147
8	3665	317.59821147835	148
8	3706	332.3680194974	149
8	3839	351.37195643331	150
8	3870	361.83794605955	151
8	3879	363.7173504405	152
8	3887	365.16791279538	153
8	3913	375.47395248143	154
8	3926	379.68294531683	155
8	3940	383.04097984779	156
8	3971	396.76440382137	157
8	3976	396.83766929377	158
8	4093	406.21371276073	159
8	4117	416.97692849318	160
8	4134	421.67087994029	161
8	4154	428.7455974507	162
8	4174	436.4674493226	163
8	4201	448.08555611869	164
8	4210	449.48203511515	165
8	4345	471.3476237443	166
9	239	21.74690295936	180
9	617	51.36892985547	180
9	746	63.47337313922	180
9	906	77.51478648739	180
9	1408	115.4351191583	180
9	1555	130.69925316837	180
9	1944	156.89488114667	180
9	2106	171.68310624658	180
9	2240	183.54463384947	180
9	2542	203.28508234461	180
9	2785	224.45016128821	180
9	2893	235.00372042525	180
9	3040	247.35277506634	180
9	3254	261.58943327837	180
10	239	21.74690295936	20.74690295936
10	617	51.36892985547	50.36892985547
10	746	63.47337313922	62.47337313922
10	906	77.51478648739	76.51478648739
10	1408	115.4351191583	114.4351191583
10	1555	130.69925316837	129.69925316837
10	1944	156.89488114667	155.89488114667
10	2106	171.68310624658	170.68310624658
10	2240	183.54463384947	182.54463384947
10	2542	203.28508234461	202.28508234461
10	2785	224.45016128821	223.45016128821
10	2893	235.00372042525	234.00372042525
10	3040	247.35277506634	246.35277506634
10	3254	261.58943327837	260.58943327837
11	239	21.74690295936	20.74690295936
12	269	24.69192750732	180
12	726	60.59396596606	180
12	1102	96.6837499056	180
12	1332	109.25925619998	180
12	1573	132.5217705451	180
12	2327	191.8476085689	180
12	2688	216.43633016367	180
12	2918	237.56629293184	180
12	3262	261.81625882727	180
12	3473	288.74641918442	180
13	269	24.69192750732	23.69192750732
13	726	60.59396596606	59.59396596606
13	1102	96.6837499056	95.6837499056
13	1332	109.25925619998	108.25925619998
13	1573	132.5217705451	131.5217705451
13	2327	191.8476085689	190.8476085689
13	2688	216.43633016367	215.43633016367
13	2918	237.56629293184	236.56629293184
13	3262	261.81625882727	260.81625882727
13	3473	288.74641918442	287.74641918442
14	269	24.69192750732	23.69192750732
15	308	28.70385345764	180
15	872	73.44476819847	180
15	1041	90.88050827145	180
15	1249	101.84195984614	180
15	1452	120.19159234472	180
15	1877	152.13006985368	180
15	2345	193.59177890344	180
15	2753	222.13071288884	180
15	2928	238.87101180612	180
15	3279	262.5895132962	180
16	308	28.70385345764	27.70385345764
16	872	73.44476819847	72.44476819847
16	1041	90.88050827145	89.88050827145
16	1249	101.84195984614	100.84195984614
16	1452	120.19159234472	119.19159234472
16	1877	152.13006985368	151.13006985368
16	2345	193.59177890344	192.59177890344
16	2753	222.13071288884	221.13071288884
16	2928	238.87101180612	237.87101180612
16	3279	262.5895132962	261.5895132962
17	308	28.70385345764	27.70385345764
18	417	39.88199818757	180
18	631	52.55653043039	180
18	796	68.19950461848	180
18	915	79.00737189566	180
18	1152	100.73976244074	180
18	1377	112.22817230965	180
18	1482	124.13459095866	180
18	1630	137.57712087356	180
18	1758	149.4338677986	180
18	1994	161.32061245497	180
18	2379	195.28018109496	180
18	2699	216.83944625892	180
18	2812	227.30178455352	180
19	417	39.88199818757	38.88199818757
19	631	52.55653043039	51.55653043039
19	796	68.19950461848	67.19950461848
19	915	79.00737189566	78.00737189566
19	1152	100.73976244074	99.73976244074
19	1377	112.22817230965	111.22817230965
19	1482	124.13459095866	123.13459095866
19	1630	137.57712087356	136.57712087356
19	1758	149.4338677986	148.4338677986
19	1994	161.32061245497	160.32061245497
19	2379	195.28018109496	194.28018109496
19	2699	216.83944625892	215.83944625892
19	2812	227.30178455352	226.30178455352
20	417	39.88199818757	38.88199818757
21	484	46.75840632388	180
21	1258	102.26896476912	180
21	1381	112.52030479353	180
21	1597	135.03817967935	180
21	1902	154.45702438456	180
21	2053	166.53403278071	180
21	2286	187.07174180638	180
21	2552	203.85296007133	180
21	2769	223.37224285564	180
21	3031	246.93665984765	180
21	3231	257.56767692373	180
21	3397	279.1746169315	180
22	484	46.75840632388	45.75840632388
22	1258	102.26896476912	101.26896476912
22	1381	112.52030479353	111.52030479353
22	1597	135.03817967935	134.03817967935
22	1902	154.45702438456	153.45702438456
22	2053	166.53403278071	165.53403278071
22	2286	187.07174180638	186.07174180638
22	2552	203.85296007133	202.85296007133
22	2769	223.37224285564	222.37224285564
22	3031	246.93665984765	245.93665984765
22	3231	257.56767692373	256.56767692373
22	3397	279.1746169315	278.1746169315
23	484	46.75840632388	45.75840632388
24	627	52.31903038047	180
24	857	72.19385442849	180
24	1078	94.71317156626	180
24	1616	136.61437060976	180
24	1763	149.7828815115	180
24	2061	166.9970951794	180
24	2175	177.04112222943	180
25	627	52.31903038047	51.31903038047
25	857	72.19385442849	71.19385442849
25	1078	94.71317156626	93.71317156626
25	1616	136.61437060976	135.61437060976
25	1763	149.7828815115	148.7828815115
25	2061	166.9970951794	165.9970951794
25	2175	177.04112222943	176.04112222943
26	627	52.31903038047	51.31903038047
27	668	56.09687398364	180
27	1601	135.03952505592	180
27	1891	153.63732656873	180
27	2947	240.22100816541	180
27	3501	296.32650947724	180
27	3869	361.83794605955	180
28	668	56.09687398364	55.09687398364
28	1601	135.03952505592	134.03952505592
28	1891	153.63732656873	152.63732656873
28	2947	240.22100816541	239.22100816541
28	3501	296.32650947724	295.32650947724
28	3869	361.83794605955	360.83794605955
29	668	56.09687398364	55.09687398364
30	696	58.23321137287	180
30	1361	111.53358266166	180
30	1873	152.06517634972	180
30	2366	194.53898006643	180
30	3169	252.53189762415	180
31	696	58.23321137287	57.23321137287
31	1361	111.53358266166	110.53358266166
31	1873	152.06517634972	151.06517634972
31	2366	194.53898006643	193.53898006643
31	3169	252.53189762415	251.53189762415
32	696	58.23321137287	57.23321137287
33	1027	89.65544754233	180
33	1492	124.88460981928	180
33	2184	178.30169982569	180
33	2570	206.44700449485	180
33	2841	229.02654217848	180
33	3155	251.50822973753	180
33	3369	272.98782044499	180
34	1027	89.65544754233	88.65544754233
34	1492	124.88460981928	123.88460981928
34	2184	178.30169982569	177.30169982569
34	2570	206.44700449485	205.44700449485
34	2841	229.02654217848	228.02654217848
34	3155	251.50822973753	250.50822973753
34	3369	272.98782044499	271.98782044499
35	1027	89.65544754233	88.65544754233
36	1049	91.76213860622	180
36	1390	113.17622795695	180
36	1975	160.39557653124	180
36	2408	198.01162195619	180
36	3173	252.74279349711	180
36	3351	270.26818332257	180
36	3488	292.49604471488	180
36	3626	303.3107948128	180
36	3878	363.7173504405	180
37	1049	91.76213860622	90.76213860622
37	1390	113.17622795695	112.17622795695
37	1975	160.39557653124	159.39557653124
37	2408	198.01162195619	197.01162195619
37	3173	252.74279349711	251.74279349711
37	3351	270.26818332257	269.26818332257
37	3488	292.49604471488	291.49604471488
37	3626	303.3107948128	302.3107948128
37	3878	363.7173504405	362.7173504405
38	1049	91.76213860622	90.76213860622
39	1123	98.1472292886	180
39	1912	154.94627629699	180
39	2199	179.39959084791	180
39	2703	217.2147016012	180
39	3458	287.39578507552	180
39	3636	306.94409322753	180
39	3664	317.59821147835	180
39	3705	332.3680194974	180
39	3838	351.37195643331	180
39	3912	375.47395248143	180
39	3975	396.83766929377	180
40	1123	98.1472292886	97.1472292886
40	1912	154.94627629699	153.94627629699
40	2199	179.39959084791	178.39959084791
40	2703	217.2147016012	216.2147016012
40	3458	287.39578507552	286.39578507552
40	3636	306.94409322753	305.94409322753
40	3664	317.59821147835	316.59821147835
40	3705	332.3680194974	331.3680194974
40	3838	351.37195643331	350.37195643331
40	3912	375.47395248143	374.47395248143
40	3975	396.83766929377	395.83766929377
41	1123	98.1472292886	97.1472292886
42	1270	104.26359575767	180
42	2712	218.73851432059	180
43	1270	104.26359575767	103.26359575767
43	2712	218.73851432059	217.73851432059
44	1270	104.26359575767	103.26359575767
45	1354	110.76181171804	180
45	1709	145.15948454144	180
45	2290	187.2626877622	180
45	3000	245.03478227176	180
46	1354	110.76181171804	109.76181171804
46	1709	145.15948454144	144.15948454144
46	2290	187.2626877622	186.2626877622
46	3000	245.03478227176	244.03478227176
47	1354	110.76181171804	109.76181171804
48	1404	115.26076504322	180
48	1583	133.82698439704	180
48	2322	191.5954890178	180
48	2636	212.55252392441	180
48	2889	234.63638468473	180
48	3223	256.79411291554	180
48	3411	280.87876263251	180
48	3622	303.23204102753	180
49	1404	115.26076504322	114.26076504322
49	1583	133.82698439704	132.82698439704
49	2322	191.5954890178	190.5954890178
49	2636	212.55252392441	211.55252392441
49	2889	234.63638468473	233.63638468473
49	3223	256.79411291554	255.79411291554
49	3411	280.87876263251	279.87876263251
49	3622	303.23204102753	302.23204102753
50	1404	115.26076504322	114.26076504322
51	1562	131.27924776347	180
51	2532	202.36458575996	180
52	1562	131.27924776347	130.27924776347
52	2532	202.36458575996	201.36458575996
53	1562	131.27924776347	130.27924776347
54	1716	145.63177040772	180
54	2065	167.35933294747	180
54	2195	178.93909635133	180
54	2727	219.65362610988	180
54	2913	236.11892230686	180
54	3235	257.63138000032	180
55	1716	145.63177040772	144.63177040772
55	2065	167.35933294747	166.35933294747
55	2195	178.93909635133	177.93909635133
55	2727	219.65362610988	218.65362610988
55	2913	236.11892230686	235.11892230686
55	3235	257.63138000032	256.63138000032
56	1716	145.63177040772	144.63177040772
57	1737	147.43945291144	180
57	2126	172.39301030169	180
57	3014	245.92531667201	180
57	3269	262.03994532226	180
58	1737	147.43945291144	146.43945291144
58	2126	172.39301030169	171.39301030169
58	3014	245.92531667201	244.92531667201
58	3269	262.03994532226	261.03994532226
59	1737	147.43945291144	146.43945291144
60	1963	159.53550585759	180
60	2614	210.94083284706	180
60	2958	241.39197677238	180
61	1963	159.53550585759	158.53550585759
61	2614	210.94083284706	209.94083284706
61	2958	241.39197677238	240.39197677238
62	1963	159.53550585759	158.53550585759
63	2013	162.70353912254	180
63	2358	194.18457304006	180
63	2984	243.12418251643	180
64	2013	162.70353912254	161.70353912254
64	2358	194.18457304006	193.18457304006
64	2984	243.12418251643	242.12418251643
65	2013	162.70353912254	161.70353912254
66	2020	163.42385632213	180
66	2881	233.97071729176	180
66	3186	253.27461858042	180
66	3886	365.16791279538	180
66	3925	379.68294531683	180
66	3970	396.76440382137	180
66	4116	416.97692849318	180
66	4153	428.7455974507	180
66	4200	448.08555611869	180
67	2020	163.42385632213	162.42385632213
67	2881	233.97071729176	232.97071729176
67	3186	253.27461858042	252.27461858042
67	3886	365.16791279538	364.16791279538
67	3925	379.68294531683	378.68294531683
67	3970	396.76440382137	395.76440382137
67	4116	416.97692849318	415.97692849318
67	4153	428.7455974507	427.7455974507
67	4200	448.08555611869	447.08555611869
68	2020	163.42385632213	162.42385632213
69	2085	169.78303018835	180
69	2640	212.70525827183	180
69	2820	227.74554184748	180
69	3159	251.71303214732	180
69	3299	264.49940306594	180
70	2085	169.78303018835	168.78303018835
70	2640	212.70525827183	211.70525827183
70	2820	227.74554184748	226.74554184748
70	3159	251.71303214732	250.71303214732
70	3299	264.49940306594	263.49940306594
71	2085	169.78303018835	168.78303018835
72	2276	186.79724499178	180
72	2599	209.39641140229	180
72	2973	242.6577147894	180
72	3431	283.73636496545	180
72	3510	297.17810071947	180
73	2276	186.79724499178	185.79724499178
73	2599	209.39641140229	208.39641140229
73	2973	242.6577147894	241.6577147894
73	3431	283.73636496545	282.73636496545
73	3510	297.17810071947	296.17810071947
74	2276	186.79724499178	185.79724499178
75	2969	242.29273043683	180
76	2969	242.29273043683	241.29273043683
77	2969	242.29273043683	241.29273043683
78	3050	249.55334316338	180
79	3050	249.55334316338	248.55334316338
80	3050	249.55334316338	248.55334316338
81	3469	288.53436418454	180
82	3469	288.53436418454	287.53436418454
83	3469	288.53436418454	287.53436418454

