version 3
run General-4-20260527-01:33:00-720927
attr configname General
attr datetime 20260527-01:33:00
attr datetimef 20260527-013300
attr experiment General
attr inifile Test_MLModel_1.ini
attr iterationvars $0=63029
attr iterationvarsd 63029
attr iterationvarsf 63029-
attr measurement $0=63029
attr network Florasat.Test_Individual.Florasat_Individual_Sats
attr processid 720927
attr repetition 4
attr replication #4
attr resultdir results
attr runnumber 4
attr seedset 4
config *.satellite[0].NoradModule.raan 185
config *.stats_altitude 670
config *.stats_raan 185
config image-path ../../images:../../../../samples/inet4.5_2/images
config network Florasat.Test_Individual.Florasat_Individual_Sats
config rng-class cMersenneTwister
config *.**.result-recording-modes -
config **.result-recording-modes -
config **.statistic-recording true
config **.scalar-recording true
config **.vector-recording true
config **.vector-record-eventnumbers true
config repeat 10
config seed-0-mt 63029
config sim-time-limit 749s
config simtime-resolution -11
config **.stats_altitude 670
config **.stats_raan 185
config *.radioMedium.backgroundNoise.power -110dBm
config *.radioMedium.mediumLimitCache.centerFrequency 868MHz
config *.radioMedium.mediumLimitCache.maxTransmissionDuration 4s
config *.radioMedium.mediumLimitCache.minInterferenceTime 0s
config **.numSatellites 1
config *.satellite[*].mobilityType "\"Sat_Mob_SatelliteMobility_Standalone\""
config *.satellite[*].noradModuleType "\"Sat_Mob_NoradA\""
config **.satellite[*].**.initFromDisplayString false
config *.satellite[*].mobility.faceForward true
config *.satellite[*].mobility.updateInterval 20s
config *.satellite[*].NoradModule.satName "\"FLoRaSat\""
config *.satellite[*].NoradModule.satIndex -1
config *.satellite[*].NoradModule.baseYear 20
config *.satellite[*].NoradModule.baseDay 1.5
config *.satellite[*].NoradModule.planes 1
config *.satellite[*].NoradModule.satPerPlane 1
config *.satellite[*].NoradModule.eccentricity 0.000001
config *.satellite[*].NoradModule.inclination 98
config *.satellite[*].NoradModule.altitude 670
config *.satellite[0].NoradModule.raan 185
config *.satellite[0].NoradModule.meanAnomaly 195
config *.satellite[*].phyDSL.radio.receiver.enableCollisionOverlap true
config *.satellite[*].phyDSL.radio.receiver.minCollisionOverlap 0s
config *.satellite[*].phyDSL.radio.antenna.typename ConstantGainAntenna
config *.satellite[*].phyDSL.radio.antenna.mobilityModule "\"^.^.^.mobility\""
config *.satellite[*].phyISL.radio.antenna.mobilityModule "\"^.^.^.mobility\""
config *.satellite[*].phyGSL.radio.antenna.mobilityModule "\"^.^.^.mobility\""
config *.satellite[*].phyDSL.radio.antenna.gain 12dB
config *.satellite[*].net.routingType "\"Null_Routing\""
config *.terminal[*].net.routingType "\"Ter_Null_Routing\""
config *.**.numGroundLinks 40
config *.satellite[*].**.interfaceTableModule "\"\""
config **.radioMedium.typename LoRaMedium
config **.radioMedium.analogModel.typename LoRaAnalogModel
config **.intraPlaneIslDisabled false
config **.interPlaneIslDisabled false
config **.numTerminals 30
config *.terminal[*].phy.radio.antenna.mobilityModule "\"^.^.^.mob\""
config *.terminal[*].dlk.mac.interfaceTableModule "\"\""
config *.terminal[*].dlk.energySourceModule "\"\""
config *.terminal[*].dlk.mac.LoRaTP "intuniform(12, 14)"
config *.terminal[*].dlk.mac.LoRaSF "intuniform(10, 12)"
config *.terminal[*].dlk.mac.useMLBox true
config *.terminal[*].dlk.mac.mlBox.modelPath "\"/home/ylnner/Documents/omnet++/omnetpp-6.3.0/projects/florasat_v4_ult_routing/simulations/Test_Individual/mlmodels/transformer_scripted.pt\""
config **.numberOfPacketsToSend 0
config **.timeToFirstPacket 1s
config **.timeToNextPacket 50s
config *.terminal[0].mob.radius 0.0
config *.terminal[0].mob.centerLatitude 54.978
config *.terminal[0].mob.centerLongitude -1.617
config *.terminal[1].mob.radius 0.0
config *.terminal[1].mob.centerLatitude 52.630
config *.terminal[1].mob.centerLongitude -1.139
config *.terminal[2].mob.radius 0.0
config *.terminal[2].mob.centerLatitude 52.612
config *.terminal[2].mob.centerLongitude -6.295
config *.terminal[3].mob.radius 0.0
config *.terminal[3].mob.centerLatitude 47.243
config *.terminal[3].mob.centerLongitude 6.024
config *.terminal[4].mob.radius 0.0
config *.terminal[4].mob.centerLatitude 43.610
config *.terminal[4].mob.centerLongitude 3.876
config *.terminal[5].mob.radius 0.0
config *.terminal[5].mob.centerLatitude 49.443
config *.terminal[5].mob.centerLongitude 1.099
config *.terminal[6].mob.radius 0.0
config *.terminal[6].mob.centerLatitude 37.992
config *.terminal[6].mob.centerLongitude -1.130
config *.terminal[7].mob.radius 0.0
config *.terminal[7].mob.centerLatitude 40.965
config *.terminal[7].mob.centerLongitude -5.664
config *.terminal[8].mob.radius 0.0
config *.terminal[8].mob.centerLatitude 40.657
config *.terminal[8].mob.centerLongitude -7.914
config *.terminal[9].mob.radius 0.0
config *.terminal[9].mob.centerLatitude 51.340
config *.terminal[9].mob.centerLongitude 12.373
config *.terminal[10].mob.radius 0.0
config *.terminal[10].mob.centerLatitude 51.455
config *.terminal[10].mob.centerLongitude 7.011
config *.terminal[11].mob.radius 0.0
config *.terminal[11].mob.centerLatitude 49.452
config *.terminal[11].mob.centerLongitude 11.076
config *.terminal[12].mob.radius 0.0
config *.terminal[12].mob.centerLatitude 43.769
config *.terminal[12].mob.centerLongitude 11.255
config *.terminal[13].mob.radius 0.0
config *.terminal[13].mob.centerLatitude 41.117
config *.terminal[13].mob.centerLongitude 16.871
config *.terminal[14].mob.radius 0.0
config *.terminal[14].mob.centerLatitude 52.132
config *.terminal[14].mob.centerLongitude 5.291
config *.terminal[15].mob.radius 0.0
config *.terminal[15].mob.centerLatitude 50.411
config *.terminal[15].mob.centerLongitude 4.444
config *.terminal[16].mob.radius 0.0
config *.terminal[16].mob.centerLatitude 47.559
config *.terminal[16].mob.centerLongitude 7.588
config *.terminal[17].mob.radius 0.0
config *.terminal[17].mob.centerLatitude 55.403
config *.terminal[17].mob.centerLongitude 10.402
config *.terminal[18].mob.radius 0.0
config *.terminal[18].mob.centerLatitude 59.858
config *.terminal[18].mob.centerLongitude 17.638
config *.terminal[19].mob.radius 0.0
config *.terminal[19].mob.centerLatitude 60.451
config *.terminal[19].mob.centerLongitude 22.266
config *.terminal[20].mob.radius 0.0
config *.terminal[20].mob.centerLatitude 56.325
config *.terminal[20].mob.centerLongitude 22.349
config *.terminal[21].mob.radius 0.0
config *.terminal[21].mob.centerLatitude 49.883
config *.terminal[21].mob.centerLongitude 18.568
config *.terminal[22].mob.radius 0.0
config *.terminal[22].mob.centerLatitude 47.531
config *.terminal[22].mob.centerLongitude 21.627
config *.terminal[23].mob.radius 0.0
config *.terminal[23].mob.centerLatitude 44.179
config *.terminal[23].mob.centerLongitude 28.649
config *.terminal[24].mob.radius 0.0
config *.terminal[24].mob.centerLatitude 45.327
config *.terminal[24].mob.centerLongitude 14.442
config *.terminal[25].mob.radius 0.0
config *.terminal[25].mob.centerLatitude 40.694
config *.terminal[25].mob.centerLongitude 30.400
config *.terminal[26].mob.radius 0.0
config *.terminal[26].mob.centerLatitude 37.066
config *.terminal[26].mob.centerLongitude 37.383
config *.terminal[27].mob.radius 0.0
config *.terminal[27].mob.centerLatitude 64.836
config *.terminal[27].mob.centerLongitude -23.708
config *.terminal[28].mob.radius 0.0
config *.terminal[28].mob.centerLatitude 28.099
config *.terminal[28].mob.centerLongitude -17.113
config *.terminal[29].mob.radius 0.0
config *.terminal[29].mob.centerLatitude 34.921
config *.terminal[29].mob.centerLongitude 33.623
config **.numStations 3
config **.numStations 3
config *.station[0].mobility.latitude 55.752
config *.station[0].mobility.longitude 37.616
config *.station[0].cityName "\"Moscow\""
config *.station[0].groundStationId 7
config *.station[0].routerAddr "\"10.0.0.29\""
config *.station[0].serving "\"10.0.0.29\""
config *.station[1].mobility.latitude 28.652
config *.station[1].mobility.longitude 77.231
config *.station[1].cityName "\"Delhi\""
config *.station[1].groundStationId 11
config *.station[1].routerAddr "\"10.0.0.45\""
config *.station[1].serving "\"10.0.0.45\""
config *.station[2].mobility.latitude 25.35
config *.station[2].mobility.longitude 51.24
config *.station[2].cityName "\"Katar\""
config *.station[2].groundStationId 19
config *.station[2].routerAddr "\"10.0.0.77\""
config *.station[2].serving "\"10.0.0.77\""
config *.visualizer.canvasVisualizer.mediumVisualizer.typename ""
config *.visualizer.*.radioVisualizer.displayAntennaLobes true
config *.visualizer.*.dataLinkVisualizer.displayLinks true
config *.visualizer.*.mobilityVisualizer.displayMovementTrails true
config *.visualizer.*.mobilityVisualizer.movementTrailLineWidth 1
config *.visualizer.*.mobilityVisualizer.trailLength 3000
config **.ttxStart_max 30s
config **.ttxIdle_min 10s
config **.ttxIdle_max 25s
config **.Ntw 2
config **.Ntx 45
config **.ttwDuration 550s

vector 0 Florasat_Individual_Sats.satellite[0].dlkDSL.mac "Satellite Position when Repetition Received" ETV
vector 1 Florasat_Individual_Sats.satellite[0].dlkDSL.mac "Repetition Position for Node 343 at Satellite" ETV
vector 2 Florasat_Individual_Sats.satellite[0].dlkDSL.mac "All Nodes Repetition Generation Delay at Satellite" ETV
vector 3 Florasat_Individual_Sats.satellite[0].dlkDSL.mac "Repetition Generation Delay for Node 343 at Satellite" ETV
vector 4 Florasat_Individual_Sats.satellite[0].dlkDSL.mac "All Nodes Message Generation Delay at Satellite" ETV
vector 5 Florasat_Individual_Sats.satellite[0].dlkDSL.mac "Message Generation Delay for Node 343 at Satellite" ETV
vector 6 Florasat_Individual_Sats.satellite[0].net.packetHandler "packets received" ETV
vector 7 Florasat_Individual_Sats.satellite[0].net.packetHandler "dropped unroutable" ETV
vector 8 Florasat_Individual_Sats.satellite[0].net.packetHandler "packets dropped" ETV
vector 9 Florasat_Individual_Sats.satellite[0].dlkDSL.mac "Repetition Position for Node 58 at Satellite" ETV
vector 10 Florasat_Individual_Sats.satellite[0].dlkDSL.mac "Repetition Generation Delay for Node 58 at Satellite" ETV
vector 11 Florasat_Individual_Sats.satellite[0].dlkDSL.mac "Message Generation Delay for Node 58 at Satellite" ETV
vector 12 Florasat_Individual_Sats.satellite[0].dlkDSL.mac "Repetition Position for Node 313 at Satellite" ETV
vector 13 Florasat_Individual_Sats.satellite[0].dlkDSL.mac "Repetition Generation Delay for Node 313 at Satellite" ETV
vector 14 Florasat_Individual_Sats.satellite[0].dlkDSL.mac "Message Generation Delay for Node 313 at Satellite" ETV
vector 15 Florasat_Individual_Sats.satellite[0].dlkDSL.mac "Repetition Position for Node 358 at Satellite" ETV
vector 16 Florasat_Individual_Sats.satellite[0].dlkDSL.mac "Repetition Generation Delay for Node 358 at Satellite" ETV
vector 17 Florasat_Individual_Sats.satellite[0].dlkDSL.mac "Message Generation Delay for Node 358 at Satellite" ETV
vector 18 Florasat_Individual_Sats.satellite[0].dlkDSL.mac "Repetition Position for Node 283 at Satellite" ETV
vector 19 Florasat_Individual_Sats.satellite[0].dlkDSL.mac "Repetition Generation Delay for Node 283 at Satellite" ETV
vector 20 Florasat_Individual_Sats.satellite[0].dlkDSL.mac "Message Generation Delay for Node 283 at Satellite" ETV
vector 21 Florasat_Individual_Sats.satellite[0].dlkDSL.mac "Repetition Position for Node 73 at Satellite" ETV
vector 22 Florasat_Individual_Sats.satellite[0].dlkDSL.mac "Repetition Generation Delay for Node 73 at Satellite" ETV
vector 23 Florasat_Individual_Sats.satellite[0].dlkDSL.mac "Message Generation Delay for Node 73 at Satellite" ETV
vector 24 Florasat_Individual_Sats.satellite[0].dlkDSL.mac "Repetition Position for Node 328 at Satellite" ETV
vector 25 Florasat_Individual_Sats.satellite[0].dlkDSL.mac "Repetition Generation Delay for Node 328 at Satellite" ETV
vector 26 Florasat_Individual_Sats.satellite[0].dlkDSL.mac "Message Generation Delay for Node 328 at Satellite" ETV
vector 27 Florasat_Individual_Sats.satellite[0].dlkDSL.mac "Repetition Position for Node 88 at Satellite" ETV
vector 28 Florasat_Individual_Sats.satellite[0].dlkDSL.mac "Repetition Generation Delay for Node 88 at Satellite" ETV
vector 29 Florasat_Individual_Sats.satellite[0].dlkDSL.mac "Message Generation Delay for Node 88 at Satellite" ETV
vector 30 Florasat_Individual_Sats.satellite[0].dlkDSL.mac "Repetition Position for Node 193 at Satellite" ETV
vector 31 Florasat_Individual_Sats.satellite[0].dlkDSL.mac "Repetition Generation Delay for Node 193 at Satellite" ETV
vector 32 Florasat_Individual_Sats.satellite[0].dlkDSL.mac "Message Generation Delay for Node 193 at Satellite" ETV
vector 33 Florasat_Individual_Sats.satellite[0].dlkDSL.mac "Repetition Position for Node 268 at Satellite" ETV
vector 34 Florasat_Individual_Sats.satellite[0].dlkDSL.mac "Repetition Generation Delay for Node 268 at Satellite" ETV
vector 35 Florasat_Individual_Sats.satellite[0].dlkDSL.mac "Message Generation Delay for Node 268 at Satellite" ETV
vector 36 Florasat_Individual_Sats.satellite[0].dlkDSL.mac "Repetition Position for Node 373 at Satellite" ETV
vector 37 Florasat_Individual_Sats.satellite[0].dlkDSL.mac "Repetition Generation Delay for Node 373 at Satellite" ETV
vector 38 Florasat_Individual_Sats.satellite[0].dlkDSL.mac "Message Generation Delay for Node 373 at Satellite" ETV
vector 39 Florasat_Individual_Sats.satellite[0].dlkDSL.mac "Repetition Position for Node 178 at Satellite" ETV
vector 40 Florasat_Individual_Sats.satellite[0].dlkDSL.mac "Repetition Generation Delay for Node 178 at Satellite" ETV
vector 41 Florasat_Individual_Sats.satellite[0].dlkDSL.mac "Message Generation Delay for Node 178 at Satellite" ETV
vector 42 Florasat_Individual_Sats.satellite[0].dlkDSL.mac "Repetition Position for Node 298 at Satellite" ETV
vector 43 Florasat_Individual_Sats.satellite[0].dlkDSL.mac "Repetition Generation Delay for Node 298 at Satellite" ETV
vector 44 Florasat_Individual_Sats.satellite[0].dlkDSL.mac "Message Generation Delay for Node 298 at Satellite" ETV
vector 45 Florasat_Individual_Sats.satellite[0].dlkDSL.mac "Repetition Position for Node 118 at Satellite" ETV
vector 46 Florasat_Individual_Sats.satellite[0].dlkDSL.mac "Repetition Generation Delay for Node 118 at Satellite" ETV
vector 47 Florasat_Individual_Sats.satellite[0].dlkDSL.mac "Message Generation Delay for Node 118 at Satellite" ETV
vector 48 Florasat_Individual_Sats.satellite[0].dlkDSL.mac "Repetition Position for Node 223 at Satellite" ETV
vector 49 Florasat_Individual_Sats.satellite[0].dlkDSL.mac "Repetition Generation Delay for Node 223 at Satellite" ETV
vector 50 Florasat_Individual_Sats.satellite[0].dlkDSL.mac "Message Generation Delay for Node 223 at Satellite" ETV
vector 51 Florasat_Individual_Sats.satellite[0].dlkDSL.mac "Repetition Position for Node 133 at Satellite" ETV
vector 52 Florasat_Individual_Sats.satellite[0].dlkDSL.mac "Repetition Generation Delay for Node 133 at Satellite" ETV
vector 53 Florasat_Individual_Sats.satellite[0].dlkDSL.mac "Message Generation Delay for Node 133 at Satellite" ETV
vector 54 Florasat_Individual_Sats.satellite[0].dlkDSL.mac "Repetition Position for Node 208 at Satellite" ETV
vector 55 Florasat_Individual_Sats.satellite[0].dlkDSL.mac "Repetition Generation Delay for Node 208 at Satellite" ETV
vector 56 Florasat_Individual_Sats.satellite[0].dlkDSL.mac "Message Generation Delay for Node 208 at Satellite" ETV
vector 57 Florasat_Individual_Sats.satellite[0].dlkDSL.mac "Repetition Position for Node 148 at Satellite" ETV
vector 58 Florasat_Individual_Sats.satellite[0].dlkDSL.mac "Repetition Generation Delay for Node 148 at Satellite" ETV
vector 59 Florasat_Individual_Sats.satellite[0].dlkDSL.mac "Message Generation Delay for Node 148 at Satellite" ETV
vector 60 Florasat_Individual_Sats.satellite[0].dlkDSL.mac "Repetition Position for Node 493 at Satellite" ETV
vector 61 Florasat_Individual_Sats.satellite[0].dlkDSL.mac "Repetition Generation Delay for Node 493 at Satellite" ETV
vector 62 Florasat_Individual_Sats.satellite[0].dlkDSL.mac "Message Generation Delay for Node 493 at Satellite" ETV
vector 63 Florasat_Individual_Sats.satellite[0].dlkDSL.mac "Repetition Position for Node 238 at Satellite" ETV
vector 64 Florasat_Individual_Sats.satellite[0].dlkDSL.mac "Repetition Generation Delay for Node 238 at Satellite" ETV
vector 65 Florasat_Individual_Sats.satellite[0].dlkDSL.mac "Message Generation Delay for Node 238 at Satellite" ETV
vector 66 Florasat_Individual_Sats.satellite[0].dlkDSL.mac "Repetition Position for Node 103 at Satellite" ETV
vector 67 Florasat_Individual_Sats.satellite[0].dlkDSL.mac "Repetition Generation Delay for Node 103 at Satellite" ETV
vector 68 Florasat_Individual_Sats.satellite[0].dlkDSL.mac "Message Generation Delay for Node 103 at Satellite" ETV
vector 69 Florasat_Individual_Sats.satellite[0].dlkDSL.mac "Repetition Position for Node 253 at Satellite" ETV
vector 70 Florasat_Individual_Sats.satellite[0].dlkDSL.mac "Repetition Generation Delay for Node 253 at Satellite" ETV
vector 71 Florasat_Individual_Sats.satellite[0].dlkDSL.mac "Message Generation Delay for Node 253 at Satellite" ETV
vector 72 Florasat_Individual_Sats.satellite[0].dlkDSL.mac "Repetition Position for Node 403 at Satellite" ETV
vector 73 Florasat_Individual_Sats.satellite[0].dlkDSL.mac "Repetition Generation Delay for Node 403 at Satellite" ETV
vector 74 Florasat_Individual_Sats.satellite[0].dlkDSL.mac "Message Generation Delay for Node 403 at Satellite" ETV
vector 75 Florasat_Individual_Sats.satellite[0].dlkDSL.mac "Repetition Position for Node 163 at Satellite" ETV
vector 76 Florasat_Individual_Sats.satellite[0].dlkDSL.mac "Repetition Generation Delay for Node 163 at Satellite" ETV
vector 77 Florasat_Individual_Sats.satellite[0].dlkDSL.mac "Message Generation Delay for Node 163 at Satellite" ETV
vector 78 Florasat_Individual_Sats.satellite[0].dlkDSL.mac "Repetition Position for Node 418 at Satellite" ETV
vector 79 Florasat_Individual_Sats.satellite[0].dlkDSL.mac "Repetition Generation Delay for Node 418 at Satellite" ETV
vector 80 Florasat_Individual_Sats.satellite[0].dlkDSL.mac "Message Generation Delay for Node 418 at Satellite" ETV
vector 81 Florasat_Individual_Sats.satellite[0].dlkDSL.mac "Repetition Position for Node 388 at Satellite" ETV
vector 82 Florasat_Individual_Sats.satellite[0].dlkDSL.mac "Repetition Generation Delay for Node 388 at Satellite" ETV
vector 83 Florasat_Individual_Sats.satellite[0].dlkDSL.mac "Message Generation Delay for Node 388 at Satellite" ETV
0	150	2.82851628022	180
0	174	9.92182333701	180
0	290	23.25245504713	180
0	317	25.12264682207	180
0	352	29.47253358298	180
0	365	30.72198084848	180
0	492	42.66582257807	180
0	524	44.68179713113	180
0	555	48.9774665941	180
0	573	50.82609782405	180
0	667	51.17879335864	180
0	696	53.74319739387	180
0	740	59.08869238099	180
0	772	62.40111711778	180
0	833	67.72948078921	180
0	854	70.40117421868	180
0	1000	86.11337034258	180
0	1036	89.09217994721	180
0	1096	94.27959853763	180
0	1110	94.57438036511	180
0	1175	98.7252042244	180
0	1191	100.34351718555	180
0	1299	102.09458356549	180
0	1342	106.53827867997	180
0	1348	107.30358015806	180
0	1373	110.74783645515	180
0	1409	114.53205545076	180
0	1430	115.93432883725	180
0	1434	116.66046553155	180
0	1448	117.78992846136	180
0	1496	120.71519613842	180
0	1530	124.40996658698	180
0	1554	127.35161694574	180
0	1569	129.61622431352	180
0	1585	130.43214895008	180
0	1605	132.00738337351	180
0	1618	132.82411020475	180
0	1640	134.52658082303	180
0	1684	139.14403256837	180
0	1693	139.90859999547	180
0	1718	142.1298681904	180
0	1741	143.84643480591	180
0	1752	144.32960721541	180
0	1778	146.44590385833	180
0	1802	149.42278660893	180
0	1810	150.32795025096	180
0	1814	150.80927246114	180
0	1928	153.70730765975	180
0	1940	154.26317309257	180
0	1944	154.68505185158	180
0	1956	155.26460515198	180
0	1981	157.42300715278	180
0	1989	157.73369486504	180
0	2007	159.52880084042	180
0	2029	161.49265145398	180
0	2047	162.82210030236	180
0	2079	165.91162253231	180
0	2089	167.41237109157	180
0	2100	168.61368118729	180
0	2106	170.10894341025	180
0	2114	171.27856341416	180
0	2125	171.75291071641	180
0	2135	172.53873847484	180
0	2142	173.81991733311	180
0	2155	175.15976191375	180
0	2169	176.10689872121	180
0	2229	181.33160361302	180
0	2233	181.68973325578	180
0	2257	182.88389181581	180
0	2281	185.62920282888	180
0	2299	186.6952690224	180
0	2309	186.96991969309	180
0	2316	187.20577038005	180
0	2340	190.18305037267	180
0	2366	192.96476560742	180
0	2370	192.97765644326	180
0	2385	194.21071966059	180
0	2404	196.21123531428	180
0	2443	199.07108545063	180
0	2456	199.97495168231	180
0	2464	200.05874836761	180
0	2578	201.61214208406	180
0	2590	202.64781834902	180
0	2618	205.50228340195	180
0	2622	205.52982382806	180
0	2636	206.7323733977	180
0	2644	207.84110886375	180
0	2651	207.88868804405	180
0	2656	209.4263422883	180
0	2682	212.55869269583	180
0	2689	212.97971226101	180
0	2702	213.52789305725	180
0	2712	214.10369142252	180
0	2755	218.52672700646	180
0	2769	219.80212053847	180
0	2780	220.57288051409	180
0	2784	220.80024065096	180
0	2793	221.70618033844	180
0	2809	222.53578938188	180
0	2821	223.20015403968	180
0	2835	224.50739653529	180
0	2860	227.1799535583	180
0	2887	230.58737990506	180
0	2891	230.63870181426	180
0	2912	232.80416970237	180
0	2923	234.32747374038	180
0	2928	234.66287960757	180
0	2937	235.43578372329	180
0	2950	236.93705455859	180
0	2965	237.94247198328	180
0	2969	238.16916226519	180
0	3014	241.22601461191	180
0	3067	246.03201644089	180
0	3092	247.53490001722	180
0	3199	251.09042514911	180
0	3208	252.00661126401	180
0	3218	252.84695865929	180
0	3225	253.81135399901	180
0	3229	254.05410282888	180
0	3243	255.28302972032	180
0	3250	255.97916273032	180
0	3258	256.39667717218	180
0	3262	256.48698494763	180
0	3271	257.06974409516	180
0	3299	261.06078253691	180
0	3304	261.24759191757	180
0	3330	264.17826869352	180
0	3338	265.14756633029	180
0	3374	270.79349707522	180
0	3379	271.19592488853	180
0	3391	272.26454684376	180
0	3397	272.55479320828	180
0	3401	272.60357028332	180
0	3416	276.07587514774	180
0	3430	279.40897088945	180
0	3453	284.75586652038	180
0	3474	291.73851870226	180
0	3488	295.73206447939	180
0	3597	302.13991551175	180
0	3609	303.13181883415	180
0	3615	304.31555682775	180
0	3636	313.75728733481	180
0	3646	317.31798835196	180
0	3670	324.60317896671	180
0	3684	328.48890246816	180
0	3711	339.99366584342	180
0	3720	341.35966137265	180
0	3742	348.61348536091	180
0	3752	350.14186368201	180
0	3856	354.99570126509	180
0	3865	358.35215759804	180
0	3896	368.56498149566	180
0	3904	370.42575378777	180
0	3935	382.28806942645	180
0	3943	383.29020344413	180
0	3955	386.4853580878	180
0	3982	399.05378056285	180
0	4089	404.00764868011	180
0	4098	404.99549182824	180
0	4140	423.7824588327	180
0	4150	425.91310858254	180
0	4183	439.26999369983	180
0	4304	454.76927586363	180
0	4333	467.91021546579	180
0	4370	485.95374938913	180
1	150	2.82851628022	180
1	317	25.12264682207	180
1	492	42.66582257807	180
1	772	62.40111711778	180
1	1000	86.11337034258	180
1	1175	98.7252042244	180
1	1496	120.71519613842	180
1	1605	132.00738337351	180
1	1940	154.26317309257	180
1	2125	171.75291071641	180
1	2316	187.20577038005	180
1	2590	202.64781834902	180
1	2784	220.80024065096	180
1	3271	257.06974409516	180
2	150	2.82851628022	1.82851628022
2	174	9.92182333701	8.92182333701
2	290	23.25245504713	22.25245504713
2	317	25.12264682207	24.12264682207
2	352	29.47253358298	28.47253358298
2	365	30.72198084848	29.72198084848
2	492	42.66582257807	41.66582257807
2	524	44.68179713113	43.68179713113
2	555	48.9774665941	47.9774665941
2	573	50.82609782405	49.82609782405
2	667	51.17879335864	50.17879335864
2	696	53.74319739387	52.74319739387
2	740	59.08869238099	58.08869238099
2	772	62.40111711778	61.40111711778
2	833	67.72948078921	66.72948078921
2	854	70.40117421868	69.40117421868
2	1000	86.11337034258	85.11337034258
2	1036	89.09217994721	88.09217994721
2	1096	94.27959853763	93.27959853763
2	1110	94.57438036511	93.57438036511
2	1175	98.7252042244	97.7252042244
2	1191	100.34351718555	99.34351718555
2	1299	102.09458356549	101.09458356549
2	1342	106.53827867997	105.53827867997
2	1348	107.30358015806	106.30358015806
2	1373	110.74783645515	109.74783645515
2	1409	114.53205545076	113.53205545076
2	1430	115.93432883725	114.93432883725
2	1434	116.66046553155	115.66046553155
2	1448	117.78992846136	116.78992846136
2	1496	120.71519613842	119.71519613842
2	1530	124.40996658698	123.40996658698
2	1554	127.35161694574	126.35161694574
2	1569	129.61622431352	128.61622431352
2	1585	130.43214895008	129.43214895008
2	1605	132.00738337351	131.00738337351
2	1618	132.82411020475	131.82411020475
2	1640	134.52658082303	133.52658082303
2	1684	139.14403256837	138.14403256837
2	1693	139.90859999547	138.90859999547
2	1718	142.1298681904	141.1298681904
2	1741	143.84643480591	142.84643480591
2	1752	144.32960721541	143.32960721541
2	1778	146.44590385833	145.44590385833
2	1802	149.42278660893	148.42278660893
2	1810	150.32795025096	149.32795025096
2	1814	150.80927246114	149.80927246114
2	1928	153.70730765975	152.70730765975
2	1940	154.26317309257	153.26317309257
2	1944	154.68505185158	153.68505185158
2	1956	155.26460515198	154.26460515198
2	1981	157.42300715278	156.42300715278
2	1989	157.73369486504	156.73369486504
2	2007	159.52880084042	158.52880084042
2	2029	161.49265145398	160.49265145398
2	2047	162.82210030236	161.82210030236
2	2079	165.91162253231	164.91162253231
2	2089	167.41237109157	166.41237109157
2	2100	168.61368118729	167.61368118729
2	2106	170.10894341025	169.10894341025
2	2114	171.27856341416	170.27856341416
2	2125	171.75291071641	170.75291071641
2	2135	172.53873847484	171.53873847484
2	2142	173.81991733311	172.81991733311
2	2155	175.15976191375	174.15976191375
2	2169	176.10689872121	175.10689872121
2	2229	181.33160361302	180.33160361302
2	2233	181.68973325578	180.68973325578
2	2257	182.88389181581	181.88389181581
2	2281	185.62920282888	184.62920282888
2	2299	186.6952690224	185.6952690224
2	2309	186.96991969309	185.96991969309
2	2316	187.20577038005	186.20577038005
2	2340	190.18305037267	189.18305037267
2	2366	192.96476560742	191.96476560742
2	2370	192.97765644326	191.97765644326
2	2385	194.21071966059	193.21071966059
2	2404	196.21123531428	195.21123531428
2	2443	199.07108545063	198.07108545063
2	2456	199.97495168231	198.97495168231
2	2464	200.05874836761	199.05874836761
2	2578	201.61214208406	200.61214208406
2	2590	202.64781834902	201.64781834902
2	2618	205.50228340195	204.50228340195
2	2622	205.52982382806	204.52982382806
2	2636	206.7323733977	205.7323733977
2	2644	207.84110886375	206.84110886375
2	2651	207.88868804405	206.88868804405
2	2656	209.4263422883	208.4263422883
2	2682	212.55869269583	211.55869269583
2	2689	212.97971226101	211.97971226101
2	2702	213.52789305725	212.52789305725
2	2712	214.10369142252	213.10369142252
2	2755	218.52672700646	217.52672700646
2	2769	219.80212053847	218.80212053847
2	2780	220.57288051409	219.57288051409
2	2784	220.80024065096	219.80024065096
2	2793	221.70618033844	220.70618033844
2	2809	222.53578938188	221.53578938188
2	2821	223.20015403968	222.20015403968
2	2835	224.50739653529	223.50739653529
2	2860	227.1799535583	226.1799535583
2	2887	230.58737990506	229.58737990506
2	2891	230.63870181426	229.63870181426
2	2912	232.80416970237	231.80416970237
2	2923	234.32747374038	233.32747374038
2	2928	234.66287960757	233.66287960757
2	2937	235.43578372329	234.43578372329
2	2950	236.93705455859	235.93705455859
2	2965	237.94247198328	236.94247198328
2	2969	238.16916226519	237.16916226519
2	3014	241.22601461191	240.22601461191
2	3067	246.03201644089	245.03201644089
2	3092	247.53490001722	246.53490001722
2	3199	251.09042514911	250.09042514911
2	3208	252.00661126401	251.00661126401
2	3218	252.84695865929	251.84695865929
2	3225	253.81135399901	252.81135399901
2	3229	254.05410282888	253.05410282888
2	3243	255.28302972032	254.28302972032
2	3250	255.97916273032	254.97916273032
2	3258	256.39667717218	255.39667717218
2	3262	256.48698494763	255.48698494763
2	3271	257.06974409516	256.06974409516
2	3299	261.06078253691	260.06078253691
2	3304	261.24759191757	260.24759191757
2	3330	264.17826869352	263.17826869352
2	3338	265.14756633029	264.14756633029
2	3374	270.79349707522	269.79349707522
2	3379	271.19592488853	270.19592488853
2	3391	272.26454684376	271.26454684376
2	3397	272.55479320828	271.55479320828
2	3401	272.60357028332	271.60357028332
2	3416	276.07587514774	275.07587514774
2	3430	279.40897088945	278.40897088945
2	3453	284.75586652038	283.75586652038
2	3474	291.73851870226	290.73851870226
2	3488	295.73206447939	294.73206447939
2	3597	302.13991551175	301.13991551175
2	3609	303.13181883415	302.13181883415
2	3615	304.31555682775	303.31555682775
2	3636	313.75728733481	312.75728733481
2	3646	317.31798835196	316.31798835196
2	3670	324.60317896671	323.60317896671
2	3684	328.48890246816	327.48890246816
2	3711	339.99366584342	338.99366584342
2	3720	341.35966137265	340.35966137265
2	3742	348.61348536091	347.61348536091
2	3752	350.14186368201	349.14186368201
2	3856	354.99570126509	353.99570126509
2	3865	358.35215759804	357.35215759804
2	3896	368.56498149566	367.56498149566
2	3904	370.42575378777	369.42575378777
2	3935	382.28806942645	381.28806942645
2	3943	383.29020344413	382.29020344413
2	3955	386.4853580878	385.4853580878
2	3982	399.05378056285	398.05378056285
2	4089	404.00764868011	403.00764868011
2	4098	404.99549182824	403.99549182824
2	4140	423.7824588327	422.7824588327
2	4150	425.91310858254	424.91310858254
2	4183	439.26999369983	438.26999369983
2	4304	454.76927586363	453.76927586363
2	4333	467.91021546579	466.91021546579
2	4370	485.95374938913	484.95374938913
3	150	2.82851628022	1.82851628022
3	317	25.12264682207	24.12264682207
3	492	42.66582257807	41.66582257807
3	772	62.40111711778	61.40111711778
3	1000	86.11337034258	85.11337034258
3	1175	98.7252042244	97.7252042244
3	1496	120.71519613842	119.71519613842
3	1605	132.00738337351	131.00738337351
3	1940	154.26317309257	153.26317309257
3	2125	171.75291071641	170.75291071641
3	2316	187.20577038005	186.20577038005
3	2590	202.64781834902	201.64781834902
3	2784	220.80024065096	219.80024065096
3	3271	257.06974409516	256.06974409516
4	150	2.82851628022	1.82851628022
4	174	9.92182333701	8.92182333701
4	290	23.25245504713	22.25245504713
4	352	29.47253358298	28.47253358298
4	365	30.72198084848	29.72198084848
4	524	44.68179713113	43.68179713113
4	555	48.9774665941	47.9774665941
4	573	50.82609782405	49.82609782405
4	667	51.17879335864	50.17879335864
4	740	59.08869238099	58.08869238099
4	833	67.72948078921	66.72948078921
4	854	70.40117421868	69.40117421868
4	1036	89.09217994721	88.09217994721
4	1299	102.09458356549	101.09458356549
4	1448	117.78992846136	116.78992846136
4	1618	132.82411020475	131.82411020475
4	1802	149.42278660893	148.42278660893
4	1810	150.32795025096	149.32795025096
4	1814	150.80927246114	149.80927246114
4	1928	153.70730765975	152.70730765975
4	2007	159.52880084042	158.52880084042
4	2142	173.81991733311	172.81991733311
4	2682	212.55869269583	211.55869269583
4	3092	247.53490001722	246.53490001722
4	3304	261.24759191757	260.24759191757
4	3416	276.07587514774	275.07587514774
5	150	2.82851628022	1.82851628022
6	151	2.82851628022	1
6	175	9.92182333701	2
6	291	23.25245504713	3
6	318	25.12264682207	4
6	353	29.47253358298	5
6	366	30.72198084848	6
6	493	42.66582257807	7
6	525	44.68179713113	8
6	556	48.9774665941	9
6	574	50.82609782405	10
6	668	51.17879335864	11
6	697	53.74319739387	12
6	741	59.08869238099	13
6	773	62.40111711778	14
6	834	67.72948078921	15
6	855	70.40117421868	16
6	1001	86.11337034258	17
6	1037	89.09217994721	18
6	1097	94.27959853763	19
6	1111	94.57438036511	20
6	1176	98.7252042244	21
6	1192	100.34351718555	22
6	1300	102.09458356549	23
6	1343	106.53827867997	24
6	1349	107.30358015806	25
6	1374	110.74783645515	26
6	1410	114.53205545076	27
6	1431	115.93432883725	28
6	1435	116.66046553155	29
6	1449	117.78992846136	30
6	1497	120.71519613842	31
6	1531	124.40996658698	32
6	1555	127.35161694574	33
6	1570	129.61622431352	34
6	1586	130.43214895008	35
6	1606	132.00738337351	36
6	1619	132.82411020475	37
6	1641	134.52658082303	38
6	1685	139.14403256837	39
6	1694	139.90859999547	40
6	1719	142.1298681904	41
6	1742	143.84643480591	42
6	1753	144.32960721541	43
6	1779	146.44590385833	44
6	1803	149.42278660893	45
6	1811	150.32795025096	46
6	1815	150.80927246114	47
6	1929	153.70730765975	48
6	1941	154.26317309257	49
6	1945	154.68505185158	50
6	1957	155.26460515198	51
6	1982	157.42300715278	52
6	1990	157.73369486504	53
6	2008	159.52880084042	54
6	2030	161.49265145398	55
6	2048	162.82210030236	56
6	2080	165.91162253231	57
6	2090	167.41237109157	58
6	2101	168.61368118729	59
6	2107	170.10894341025	60
6	2115	171.27856341416	61
6	2126	171.75291071641	62
6	2136	172.53873847484	63
6	2143	173.81991733311	64
6	2156	175.15976191375	65
6	2170	176.10689872121	66
6	2230	181.33160361302	67
6	2234	181.68973325578	68
6	2258	182.88389181581	69
6	2282	185.62920282888	70
6	2300	186.6952690224	71
6	2310	186.96991969309	72
6	2317	187.20577038005	73
6	2341	190.18305037267	74
6	2367	192.96476560742	75
6	2371	192.97765644326	76
6	2386	194.21071966059	77
6	2405	196.21123531428	78
6	2444	199.07108545063	79
6	2457	199.97495168231	80
6	2465	200.05874836761	81
6	2579	201.61214208406	82
6	2591	202.64781834902	83
6	2619	205.50228340195	84
6	2623	205.52982382806	85
6	2637	206.7323733977	86
6	2645	207.84110886375	87
6	2652	207.88868804405	88
6	2657	209.4263422883	89
6	2683	212.55869269583	90
6	2690	212.97971226101	91
6	2703	213.52789305725	92
6	2713	214.10369142252	93
6	2756	218.52672700646	94
6	2770	219.80212053847	95
6	2781	220.57288051409	96
6	2785	220.80024065096	97
6	2794	221.70618033844	98
6	2810	222.53578938188	99
6	2822	223.20015403968	100
6	2836	224.50739653529	101
6	2861	227.1799535583	102
6	2888	230.58737990506	103
6	2892	230.63870181426	104
6	2913	232.80416970237	105
6	2924	234.32747374038	106
6	2929	234.66287960757	107
6	2938	235.43578372329	108
6	2951	236.93705455859	109
6	2966	237.94247198328	110
6	2970	238.16916226519	111
6	3015	241.22601461191	112
6	3068	246.03201644089	113
6	3093	247.53490001722	114
6	3200	251.09042514911	115
6	3209	252.00661126401	116
6	3219	252.84695865929	117
6	3226	253.81135399901	118
6	3230	254.05410282888	119
6	3244	255.28302972032	120
6	3251	255.97916273032	121
6	3259	256.39667717218	122
6	3263	256.48698494763	123
6	3272	257.06974409516	124
6	3300	261.06078253691	125
6	3305	261.24759191757	126
6	3331	264.17826869352	127
6	3339	265.14756633029	128
6	3375	270.79349707522	129
6	3380	271.19592488853	130
6	3392	272.26454684376	131
6	3398	272.55479320828	132
6	3402	272.60357028332	133
6	3417	276.07587514774	134
6	3431	279.40897088945	135
6	3454	284.75586652038	136
6	3475	291.73851870226	137
6	3489	295.73206447939	138
6	3598	302.13991551175	139
6	3610	303.13181883415	140
6	3616	304.31555682775	141
6	3637	313.75728733481	142
6	3647	317.31798835196	143
6	3671	324.60317896671	144
6	3685	328.48890246816	145
6	3712	339.99366584342	146
6	3721	341.35966137265	147
6	3743	348.61348536091	148
6	3753	350.14186368201	149
6	3857	354.99570126509	150
6	3866	358.35215759804	151
6	3897	368.56498149566	152
6	3905	370.42575378777	153
6	3936	382.28806942645	154
6	3944	383.29020344413	155
6	3956	386.4853580878	156
6	3983	399.05378056285	157
6	4090	404.00764868011	158
6	4099	404.99549182824	159
6	4141	423.7824588327	160
6	4151	425.91310858254	161
6	4184	439.26999369983	162
6	4305	454.76927586363	163
6	4334	467.91021546579	164
6	4371	485.95374938913	165
7	151	2.82851628022	1
7	175	9.92182333701	2
7	291	23.25245504713	3
7	318	25.12264682207	4
7	353	29.47253358298	5
7	366	30.72198084848	6
7	493	42.66582257807	7
7	525	44.68179713113	8
7	556	48.9774665941	9
7	574	50.82609782405	10
7	668	51.17879335864	11
7	697	53.74319739387	12
7	741	59.08869238099	13
7	773	62.40111711778	14
7	834	67.72948078921	15
7	855	70.40117421868	16
7	1001	86.11337034258	17
7	1037	89.09217994721	18
7	1097	94.27959853763	19
7	1111	94.57438036511	20
7	1176	98.7252042244	21
7	1192	100.34351718555	22
7	1300	102.09458356549	23
7	1343	106.53827867997	24
7	1349	107.30358015806	25
7	1374	110.74783645515	26
7	1410	114.53205545076	27
7	1431	115.93432883725	28
7	1435	116.66046553155	29
7	1449	117.78992846136	30
7	1497	120.71519613842	31
7	1531	124.40996658698	32
7	1555	127.35161694574	33
7	1570	129.61622431352	34
7	1586	130.43214895008	35
7	1606	132.00738337351	36
7	1619	132.82411020475	37
7	1641	134.52658082303	38
7	1685	139.14403256837	39
7	1694	139.90859999547	40
7	1719	142.1298681904	41
7	1742	143.84643480591	42
7	1753	144.32960721541	43
7	1779	146.44590385833	44
7	1803	149.42278660893	45
7	1811	150.32795025096	46
7	1815	150.80927246114	47
7	1929	153.70730765975	48
7	1941	154.26317309257	49
7	1945	154.68505185158	50
7	1957	155.26460515198	51
7	1982	157.42300715278	52
7	1990	157.73369486504	53
7	2008	159.52880084042	54
7	2030	161.49265145398	55
7	2048	162.82210030236	56
7	2080	165.91162253231	57
7	2090	167.41237109157	58
7	2101	168.61368118729	59
7	2107	170.10894341025	60
7	2115	171.27856341416	61
7	2126	171.75291071641	62
7	2136	172.53873847484	63
7	2143	173.81991733311	64
7	2156	175.15976191375	65
7	2170	176.10689872121	66
7	2230	181.33160361302	67
7	2234	181.68973325578	68
7	2258	182.88389181581	69
7	2282	185.62920282888	70
7	2300	186.6952690224	71
7	2310	186.96991969309	72
7	2317	187.20577038005	73
7	2341	190.18305037267	74
7	2367	192.96476560742	75
7	2371	192.97765644326	76
7	2386	194.21071966059	77
7	2405	196.21123531428	78
7	2444	199.07108545063	79
7	2457	199.97495168231	80
7	2465	200.05874836761	81
7	2579	201.61214208406	82
7	2591	202.64781834902	83
7	2619	205.50228340195	84
7	2623	205.52982382806	85
7	2637	206.7323733977	86
7	2645	207.84110886375	87
7	2652	207.88868804405	88
7	2657	209.4263422883	89
7	2683	212.55869269583	90
7	2690	212.97971226101	91
7	2703	213.52789305725	92
7	2713	214.10369142252	93
7	2756	218.52672700646	94
7	2770	219.80212053847	95
7	2781	220.57288051409	96
7	2785	220.80024065096	97
7	2794	221.70618033844	98
7	2810	222.53578938188	99
7	2822	223.20015403968	100
7	2836	224.50739653529	101
7	2861	227.1799535583	102
7	2888	230.58737990506	103
7	2892	230.63870181426	104
7	2913	232.80416970237	105
7	2924	234.32747374038	106
7	2929	234.66287960757	107
7	2938	235.43578372329	108
7	2951	236.93705455859	109
7	2966	237.94247198328	110
7	2970	238.16916226519	111
7	3015	241.22601461191	112
7	3068	246.03201644089	113
7	3093	247.53490001722	114
7	3200	251.09042514911	115
7	3209	252.00661126401	116
7	3219	252.84695865929	117
7	3226	253.81135399901	118
7	3230	254.05410282888	119
7	3244	255.28302972032	120
7	3251	255.97916273032	121
7	3259	256.39667717218	122
7	3263	256.48698494763	123
7	3272	257.06974409516	124
7	3300	261.06078253691	125
7	3305	261.24759191757	126
7	3331	264.17826869352	127
7	3339	265.14756633029	128
7	3375	270.79349707522	129
7	3380	271.19592488853	130
7	3392	272.26454684376	131
7	3398	272.55479320828	132
7	3402	272.60357028332	133
7	3417	276.07587514774	134
7	3431	279.40897088945	135
7	3454	284.75586652038	136
7	3475	291.73851870226	137
7	3489	295.73206447939	138
7	3598	302.13991551175	139
7	3610	303.13181883415	140
7	3616	304.31555682775	141
7	3637	313.75728733481	142
7	3647	317.31798835196	143
7	3671	324.60317896671	144
7	3685	328.48890246816	145
7	3712	339.99366584342	146
7	3721	341.35966137265	147
7	3743	348.61348536091	148
7	3753	350.14186368201	149
7	3857	354.99570126509	150
7	3866	358.35215759804	151
7	3897	368.56498149566	152
7	3905	370.42575378777	153
7	3936	382.28806942645	154
7	3944	383.29020344413	155
7	3956	386.4853580878	156
7	3983	399.05378056285	157
7	4090	404.00764868011	158
7	4099	404.99549182824	159
7	4141	423.7824588327	160
7	4151	425.91310858254	161
7	4184	439.26999369983	162
7	4305	454.76927586363	163
7	4334	467.91021546579	164
7	4371	485.95374938913	165
8	151	2.82851628022	1
8	175	9.92182333701	2
8	291	23.25245504713	3
8	318	25.12264682207	4
8	353	29.47253358298	5
8	366	30.72198084848	6
8	493	42.66582257807	7
8	525	44.68179713113	8
8	556	48.9774665941	9
8	574	50.82609782405	10
8	668	51.17879335864	11
8	697	53.74319739387	12
8	741	59.08869238099	13
8	773	62.40111711778	14
8	834	67.72948078921	15
8	855	70.40117421868	16
8	1001	86.11337034258	17
8	1037	89.09217994721	18
8	1097	94.27959853763	19
8	1111	94.57438036511	20
8	1176	98.7252042244	21
8	1192	100.34351718555	22
8	1300	102.09458356549	23
8	1343	106.53827867997	24
8	1349	107.30358015806	25
8	1374	110.74783645515	26
8	1410	114.53205545076	27
8	1431	115.93432883725	28
8	1435	116.66046553155	29
8	1449	117.78992846136	30
8	1497	120.71519613842	31
8	1531	124.40996658698	32
8	1555	127.35161694574	33
8	1570	129.61622431352	34
8	1586	130.43214895008	35
8	1606	132.00738337351	36
8	1619	132.82411020475	37
8	1641	134.52658082303	38
8	1685	139.14403256837	39
8	1694	139.90859999547	40
8	1719	142.1298681904	41
8	1742	143.84643480591	42
8	1753	144.32960721541	43
8	1779	146.44590385833	44
8	1803	149.42278660893	45
8	1811	150.32795025096	46
8	1815	150.80927246114	47
8	1929	153.70730765975	48
8	1941	154.26317309257	49
8	1945	154.68505185158	50
8	1957	155.26460515198	51
8	1982	157.42300715278	52
8	1990	157.73369486504	53
8	2008	159.52880084042	54
8	2030	161.49265145398	55
8	2048	162.82210030236	56
8	2080	165.91162253231	57
8	2090	167.41237109157	58
8	2101	168.61368118729	59
8	2107	170.10894341025	60
8	2115	171.27856341416	61
8	2126	171.75291071641	62
8	2136	172.53873847484	63
8	2143	173.81991733311	64
8	2156	175.15976191375	65
8	2170	176.10689872121	66
8	2230	181.33160361302	67
8	2234	181.68973325578	68
8	2258	182.88389181581	69
8	2282	185.62920282888	70
8	2300	186.6952690224	71
8	2310	186.96991969309	72
8	2317	187.20577038005	73
8	2341	190.18305037267	74
8	2367	192.96476560742	75
8	2371	192.97765644326	76
8	2386	194.21071966059	77
8	2405	196.21123531428	78
8	2444	199.07108545063	79
8	2457	199.97495168231	80
8	2465	200.05874836761	81
8	2579	201.61214208406	82
8	2591	202.64781834902	83
8	2619	205.50228340195	84
8	2623	205.52982382806	85
8	2637	206.7323733977	86
8	2645	207.84110886375	87
8	2652	207.88868804405	88
8	2657	209.4263422883	89
8	2683	212.55869269583	90
8	2690	212.97971226101	91
8	2703	213.52789305725	92
8	2713	214.10369142252	93
8	2756	218.52672700646	94
8	2770	219.80212053847	95
8	2781	220.57288051409	96
8	2785	220.80024065096	97
8	2794	221.70618033844	98
8	2810	222.53578938188	99
8	2822	223.20015403968	100
8	2836	224.50739653529	101
8	2861	227.1799535583	102
8	2888	230.58737990506	103
8	2892	230.63870181426	104
8	2913	232.80416970237	105
8	2924	234.32747374038	106
8	2929	234.66287960757	107
8	2938	235.43578372329	108
8	2951	236.93705455859	109
8	2966	237.94247198328	110
8	2970	238.16916226519	111
8	3015	241.22601461191	112
8	3068	246.03201644089	113
8	3093	247.53490001722	114
8	3200	251.09042514911	115
8	3209	252.00661126401	116
8	3219	252.84695865929	117
8	3226	253.81135399901	118
8	3230	254.05410282888	119
8	3244	255.28302972032	120
8	3251	255.97916273032	121
8	3259	256.39667717218	122
8	3263	256.48698494763	123
8	3272	257.06974409516	124
8	3300	261.06078253691	125
8	3305	261.24759191757	126
8	3331	264.17826869352	127
8	3339	265.14756633029	128
8	3375	270.79349707522	129
8	3380	271.19592488853	130
8	3392	272.26454684376	131
8	3398	272.55479320828	132
8	3402	272.60357028332	133
8	3417	276.07587514774	134
8	3431	279.40897088945	135
8	3454	284.75586652038	136
8	3475	291.73851870226	137
8	3489	295.73206447939	138
8	3598	302.13991551175	139
8	3610	303.13181883415	140
8	3616	304.31555682775	141
8	3637	313.75728733481	142
8	3647	317.31798835196	143
8	3671	324.60317896671	144
8	3685	328.48890246816	145
8	3712	339.99366584342	146
8	3721	341.35966137265	147
8	3743	348.61348536091	148
8	3753	350.14186368201	149
8	3857	354.99570126509	150
8	3866	358.35215759804	151
8	3897	368.56498149566	152
8	3905	370.42575378777	153
8	3936	382.28806942645	154
8	3944	383.29020344413	155
8	3956	386.4853580878	156
8	3983	399.05378056285	157
8	4090	404.00764868011	158
8	4099	404.99549182824	159
8	4141	423.7824588327	160
8	4151	425.91310858254	161
8	4184	439.26999369983	162
8	4305	454.76927586363	163
8	4334	467.91021546579	164
8	4371	485.95374938913	165
9	174	9.92182333701	180
9	1096	94.27959853763	180
9	1956	155.26460515198	180
9	2089	167.41237109157	180
9	2257	182.88389181581	180
10	174	9.92182333701	8.92182333701
10	1096	94.27959853763	93.27959853763
10	1956	155.26460515198	154.26460515198
10	2089	167.41237109157	166.41237109157
10	2257	182.88389181581	181.88389181581
11	174	9.92182333701	8.92182333701
12	290	23.25245504713	180
12	2029	161.49265145398	180
12	2644	207.84110886375	180
12	2769	219.80212053847	180
12	3250	255.97916273032	180
12	3430	279.40897088945	180
12	3615	304.31555682775	180
13	290	23.25245504713	22.25245504713
13	2029	161.49265145398	160.49265145398
13	2644	207.84110886375	206.84110886375
13	2769	219.80212053847	218.80212053847
13	3250	255.97916273032	254.97916273032
13	3430	279.40897088945	278.40897088945
13	3615	304.31555682775	303.31555682775
14	290	23.25245504713	22.25245504713
15	352	29.47253358298	180
15	696	53.74319739387	180
15	1434	116.66046553155	180
15	1981	157.42300715278	180
15	2229	181.33160361302	180
15	2366	192.96476560742	180
15	2622	205.52982382806	180
15	2835	224.50739653529	180
15	3299	261.06078253691	180
15	3391	272.26454684376	180
16	352	29.47253358298	28.47253358298
16	696	53.74319739387	52.74319739387
16	1434	116.66046553155	115.66046553155
16	1981	157.42300715278	156.42300715278
16	2229	181.33160361302	180.33160361302
16	2366	192.96476560742	191.96476560742
16	2622	205.52982382806	204.52982382806
16	2835	224.50739653529	223.50739653529
16	3299	261.06078253691	260.06078253691
16	3391	272.26454684376	271.26454684376
17	352	29.47253358298	28.47253358298
18	365	30.72198084848	180
18	1191	100.34351718555	180
18	1569	129.61622431352	180
18	2135	172.53873847484	180
18	2689	212.97971226101	180
18	3067	246.03201644089	180
18	3374	270.79349707522	180
18	3488	295.73206447939	180
19	365	30.72198084848	29.72198084848
19	1191	100.34351718555	99.34351718555
19	1569	129.61622431352	128.61622431352
19	2135	172.53873847484	171.53873847484
19	2689	212.97971226101	211.97971226101
19	3067	246.03201644089	245.03201644089
19	3374	270.79349707522	269.79349707522
19	3488	295.73206447939	294.73206447939
20	365	30.72198084848	29.72198084848
21	524	44.68179713113	180
21	1409	114.53205545076	180
21	1554	127.35161694574	180
21	1778	146.44590385833	180
21	2047	162.82210030236	180
21	2860	227.1799535583	180
21	3218	252.84695865929	180
22	524	44.68179713113	43.68179713113
22	1409	114.53205545076	113.53205545076
22	1554	127.35161694574	126.35161694574
22	1778	146.44590385833	145.44590385833
22	2047	162.82210030236	161.82210030236
22	2860	227.1799535583	226.1799535583
22	3218	252.84695865929	251.84695865929
23	524	44.68179713113	43.68179713113
24	555	48.9774665941	180
24	1110	94.57438036511	180
24	1342	106.53827867997	180
24	1585	130.43214895008	180
24	1741	143.84643480591	180
24	1989	157.73369486504	180
24	2169	176.10689872121	180
24	2309	186.96991969309	180
24	2636	206.7323733977	180
24	2821	223.20015403968	180
24	3014	241.22601461191	180
24	3338	265.14756633029	180
25	555	48.9774665941	47.9774665941
25	1110	94.57438036511	93.57438036511
25	1342	106.53827867997	105.53827867997
25	1585	130.43214895008	129.43214895008
25	1741	143.84643480591	142.84643480591
25	1989	157.73369486504	156.73369486504
25	2169	176.10689872121	175.10689872121
25	2309	186.96991969309	185.96991969309
25	2636	206.7323733977	205.7323733977
25	2821	223.20015403968	222.20015403968
25	3014	241.22601461191	240.22601461191
25	3338	265.14756633029	264.14756633029
26	555	48.9774665941	47.9774665941
27	573	50.82609782405	180
27	1348	107.30358015806	180
27	1718	142.1298681904	180
27	2079	165.91162253231	180
27	2464	200.05874836761	180
27	2965	237.94247198328	180
27	3243	255.28302972032	180
28	573	50.82609782405	49.82609782405
28	1348	107.30358015806	106.30358015806
28	1718	142.1298681904	141.1298681904
28	2079	165.91162253231	164.91162253231
28	2464	200.05874836761	199.05874836761
28	2965	237.94247198328	236.94247198328
28	3243	255.28302972032	254.28302972032
29	573	50.82609782405	49.82609782405
30	667	51.17879335864	180
30	2340	190.18305037267	180
30	2891	230.63870181426	180
30	3199	251.09042514911	180
30	3453	284.75586652038	180
30	3597	302.13991551175	180
30	3646	317.31798835196	180
30	3720	341.35966137265	180
30	3856	354.99570126509	180
31	667	51.17879335864	50.17879335864
31	2340	190.18305037267	189.18305037267
31	2891	230.63870181426	229.63870181426
31	3199	251.09042514911	250.09042514911
31	3453	284.75586652038	283.75586652038
31	3597	302.13991551175	301.13991551175
31	3646	317.31798835196	316.31798835196
31	3720	341.35966137265	340.35966137265
31	3856	354.99570126509	353.99570126509
32	667	51.17879335864	50.17879335864
33	740	59.08869238099	180
33	2155	175.15976191375	180
33	2755	218.52672700646	180
34	740	59.08869238099	58.08869238099
34	2155	175.15976191375	174.15976191375
34	2755	218.52672700646	217.52672700646
35	740	59.08869238099	58.08869238099
36	833	67.72948078921	180
36	1430	115.93432883725	180
36	1693	139.90859999547	180
36	2793	221.70618033844	180
36	2928	234.66287960757	180
36	3262	256.48698494763	180
36	3379	271.19592488853	180
36	3474	291.73851870226	180
36	3636	313.75728733481	180
36	3684	328.48890246816	180
36	3742	348.61348536091	180
37	833	67.72948078921	66.72948078921
37	1430	115.93432883725	114.93432883725
37	1693	139.90859999547	138.90859999547
37	2793	221.70618033844	220.70618033844
37	2928	234.66287960757	233.66287960757
37	3262	256.48698494763	255.48698494763
37	3379	271.19592488853	270.19592488853
37	3474	291.73851870226	290.73851870226
37	3636	313.75728733481	312.75728733481
37	3684	328.48890246816	327.48890246816
37	3742	348.61348536091	347.61348536091
38	833	67.72948078921	66.72948078921
39	854	70.40117421868	180
39	2923	234.32747374038	180
39	3225	253.81135399901	180
40	854	70.40117421868	69.40117421868
40	2923	234.32747374038	233.32747374038
40	3225	253.81135399901	252.81135399901
41	854	70.40117421868	69.40117421868
42	1036	89.09217994721	180
42	1373	110.74783645515	180
42	1640	134.52658082303	180
42	1944	154.68505185158	180
42	2404	196.21123531428	180
42	2712	214.10369142252	180
42	3935	382.28806942645	180
42	3982	399.05378056285	180
43	1036	89.09217994721	88.09217994721
43	1373	110.74783645515	109.74783645515
43	1640	134.52658082303	133.52658082303
43	1944	154.68505185158	153.68505185158
43	2404	196.21123531428	195.21123531428
43	2712	214.10369142252	213.10369142252
43	3935	382.28806942645	381.28806942645
43	3982	399.05378056285	398.05378056285
44	1036	89.09217994721	88.09217994721
45	1299	102.09458356549	180
45	1530	124.40996658698	180
45	2370	192.97765644326	180
45	2651	207.88868804405	180
45	2887	230.58737990506	180
45	3258	256.39667717218	180
46	1299	102.09458356549	101.09458356549
46	1530	124.40996658698	123.40996658698
46	2370	192.97765644326	191.97765644326
46	2651	207.88868804405	206.88868804405
46	2887	230.58737990506	229.58737990506
46	3258	256.39667717218	255.39667717218
47	1299	102.09458356549	101.09458356549
48	1448	117.78992846136	180
48	1684	139.14403256837	180
48	2114	171.27856341416	180
48	2443	199.07108545063	180
48	2702	213.52789305725	180
48	2937	235.43578372329	180
48	3229	254.05410282888	180
48	3609	303.13181883415	180
48	3670	324.60317896671	180
48	3711	339.99366584342	180
48	3865	358.35215759804	180
48	3904	370.42575378777	180
49	1448	117.78992846136	116.78992846136
49	1684	139.14403256837	138.14403256837
49	2114	171.27856341416	170.27856341416
49	2443	199.07108545063	198.07108545063
49	2702	213.52789305725	212.52789305725
49	2937	235.43578372329	234.43578372329
49	3229	254.05410282888	253.05410282888
49	3609	303.13181883415	302.13181883415
49	3670	324.60317896671	323.60317896671
49	3711	339.99366584342	338.99366584342
49	3865	358.35215759804	357.35215759804
49	3904	370.42575378777	369.42575378777
50	1448	117.78992846136	116.78992846136
51	1618	132.82411020475	180
51	1752	144.32960721541	180
51	2456	199.97495168231	180
51	2809	222.53578938188	180
51	2950	236.93705455859	180
51	3208	252.00661126401	180
51	3401	272.60357028332	180
52	1618	132.82411020475	131.82411020475
52	1752	144.32960721541	143.32960721541
52	2456	199.97495168231	198.97495168231
52	2809	222.53578938188	221.53578938188
52	2950	236.93705455859	235.93705455859
52	3208	252.00661126401	251.00661126401
52	3401	272.60357028332	271.60357028332
53	1618	132.82411020475	131.82411020475
54	1802	149.42278660893	180
54	2233	181.68973325578	180
54	2578	201.61214208406	180
54	2780	220.57288051409	180
54	3330	264.17826869352	180
55	1802	149.42278660893	148.42278660893
55	2233	181.68973325578	180.68973325578
55	2578	201.61214208406	200.61214208406
55	2780	220.57288051409	219.57288051409
55	3330	264.17826869352	263.17826869352
56	1802	149.42278660893	148.42278660893
57	1810	150.32795025096	180
57	2100	168.61368118729	180
57	2281	185.62920282888	180
57	3397	272.55479320828	180
58	1810	150.32795025096	149.32795025096
58	2100	168.61368118729	167.61368118729
58	2281	185.62920282888	184.62920282888
58	3397	272.55479320828	271.55479320828
59	1810	150.32795025096	149.32795025096
60	1814	150.80927246114	180
60	2106	170.10894341025	180
60	2299	186.6952690224	180
60	2656	209.4263422883	180
61	1814	150.80927246114	149.80927246114
61	2106	170.10894341025	169.10894341025
61	2299	186.6952690224	185.6952690224
61	2656	209.4263422883	208.4263422883
62	1814	150.80927246114	149.80927246114
63	1928	153.70730765975	180
63	2385	194.21071966059	180
63	3955	386.4853580878	180
63	4089	404.00764868011	180
63	4140	423.7824588327	180
63	4183	439.26999369983	180
63	4304	454.76927586363	180
63	4333	467.91021546579	180
63	4370	485.95374938913	180
64	1928	153.70730765975	152.70730765975
64	2385	194.21071966059	193.21071966059
64	3955	386.4853580878	385.4853580878
64	4089	404.00764868011	403.00764868011
64	4140	423.7824588327	422.7824588327
64	4183	439.26999369983	438.26999369983
64	4304	454.76927586363	453.76927586363
64	4333	467.91021546579	466.91021546579
64	4370	485.95374938913	484.95374938913
65	1928	153.70730765975	152.70730765975
66	2007	159.52880084042	180
66	2618	205.50228340195	180
66	2969	238.16916226519	180
67	2007	159.52880084042	158.52880084042
67	2618	205.50228340195	204.50228340195
67	2969	238.16916226519	237.16916226519
68	2007	159.52880084042	158.52880084042
69	2142	173.81991733311	180
70	2142	173.81991733311	172.81991733311
71	2142	173.81991733311	172.81991733311
72	2682	212.55869269583	180
72	2912	232.80416970237	180
73	2682	212.55869269583	211.55869269583
73	2912	232.80416970237	231.80416970237
74	2682	212.55869269583	211.55869269583
75	3092	247.53490001722	180
76	3092	247.53490001722	246.53490001722
77	3092	247.53490001722	246.53490001722
78	3304	261.24759191757	180
78	3752	350.14186368201	180
78	3896	368.56498149566	180
78	3943	383.29020344413	180
78	4098	404.99549182824	180
78	4150	425.91310858254	180
79	3304	261.24759191757	260.24759191757
79	3752	350.14186368201	349.14186368201
79	3896	368.56498149566	367.56498149566
79	3943	383.29020344413	382.29020344413
79	4098	404.99549182824	403.99549182824
79	4150	425.91310858254	424.91310858254
80	3304	261.24759191757	260.24759191757
81	3416	276.07587514774	180
82	3416	276.07587514774	275.07587514774
83	3416	276.07587514774	275.07587514774

