file 53143 1779838403                                           
version 3
run General-8-20260527-01:33:18-720927
attr configname General
attr datetime 20260527-01:33:18
attr datetimef 20260527-013318
attr experiment General
attr inifile Test_MLModel_1.ini
attr iterationvars $0=76328
attr iterationvarsd 76328
attr iterationvarsf 76328-
attr measurement $0=76328
attr network Florasat.Test_Individual.Florasat_Individual_Sats
attr processid 720927
attr repetition 8
attr replication #8
attr resultdir results
attr runnumber 8
attr seedset 8
config *.satellite[0].NoradModule.raan 185
config *.stats_altitude 670
config *.stats_raan 185
config image-path ../../images:../../../../samples/inet4.5_2/images
config network Florasat.Test_Individual.Florasat_Individual_Sats
config rng-class cMersenneTwister
config *.**.result-recording-modes -
config **.result-recording-modes -
config **.statistic-recording true
config **.scalar-recording true
config **.vector-recording true
config **.vector-record-eventnumbers true
config repeat 10
config seed-0-mt 76328
config sim-time-limit 749s
config simtime-resolution -11
config **.stats_altitude 670
config **.stats_raan 185
config *.radioMedium.backgroundNoise.power -110dBm
config *.radioMedium.mediumLimitCache.centerFrequency 868MHz
config *.radioMedium.mediumLimitCache.maxTransmissionDuration 4s
config *.radioMedium.mediumLimitCache.minInterferenceTime 0s
config **.numSatellites 1
config *.satellite[*].mobilityType "\"Sat_Mob_SatelliteMobility_Standalone\""
config *.satellite[*].noradModuleType "\"Sat_Mob_NoradA\""
config **.satellite[*].**.initFromDisplayString false
config *.satellite[*].mobility.faceForward true
config *.satellite[*].mobility.updateInterval 20s
config *.satellite[*].NoradModule.satName "\"FLoRaSat\""
config *.satellite[*].NoradModule.satIndex -1
config *.satellite[*].NoradModule.baseYear 20
config *.satellite[*].NoradModule.baseDay 1.5
config *.satellite[*].NoradModule.planes 1
config *.satellite[*].NoradModule.satPerPlane 1
config *.satellite[*].NoradModule.eccentricity 0.000001
config *.satellite[*].NoradModule.inclination 98
config *.satellite[*].NoradModule.altitude 670
config *.satellite[0].NoradModule.raan 185
config *.satellite[0].NoradModule.meanAnomaly 195
config *.satellite[*].phyDSL.radio.receiver.enableCollisionOverlap true
config *.satellite[*].phyDSL.radio.receiver.minCollisionOverlap 0s
config *.satellite[*].phyDSL.radio.antenna.typename ConstantGainAntenna
config *.satellite[*].phyDSL.radio.antenna.mobilityModule "\"^.^.^.mobility\""
config *.satellite[*].phyISL.radio.antenna.mobilityModule "\"^.^.^.mobility\""
config *.satellite[*].phyGSL.radio.antenna.mobilityModule "\"^.^.^.mobility\""
config *.satellite[*].phyDSL.radio.antenna.gain 12dB
config *.satellite[*].net.routingType "\"Null_Routing\""
config *.terminal[*].net.routingType "\"Ter_Null_Routing\""
config *.**.numGroundLinks 40
config *.satellite[*].**.interfaceTableModule "\"\""
config **.radioMedium.typename LoRaMedium
config **.radioMedium.analogModel.typename LoRaAnalogModel
config **.intraPlaneIslDisabled false
config **.interPlaneIslDisabled false
config **.numTerminals 30
config *.terminal[*].phy.radio.antenna.mobilityModule "\"^.^.^.mob\""
config *.terminal[*].dlk.mac.interfaceTableModule "\"\""
config *.terminal[*].dlk.energySourceModule "\"\""
config *.terminal[*].dlk.mac.LoRaTP "intuniform(12, 14)"
config *.terminal[*].dlk.mac.LoRaSF "intuniform(10, 12)"
config *.terminal[*].dlk.mac.useMLBox true
config *.terminal[*].dlk.mac.mlBox.modelPath "\"/home/ylnner/Documents/omnet++/omnetpp-6.3.0/projects/florasat_v4_ult_routing/simulations/Test_Individual/mlmodels/transformer_scripted.pt\""
config **.numberOfPacketsToSend 0
config **.timeToFirstPacket 1s
config **.timeToNextPacket 50s
config *.terminal[0].mob.radius 0.0
config *.terminal[0].mob.centerLatitude 54.978
config *.terminal[0].mob.centerLongitude -1.617
config *.terminal[1].mob.radius 0.0
config *.terminal[1].mob.centerLatitude 52.630
config *.terminal[1].mob.centerLongitude -1.139
config *.terminal[2].mob.radius 0.0
config *.terminal[2].mob.centerLatitude 52.612
config *.terminal[2].mob.centerLongitude -6.295
config *.terminal[3].mob.radius 0.0
config *.terminal[3].mob.centerLatitude 47.243
config *.terminal[3].mob.centerLongitude 6.024
config *.terminal[4].mob.radius 0.0
config *.terminal[4].mob.centerLatitude 43.610
config *.terminal[4].mob.centerLongitude 3.876
config *.terminal[5].mob.radius 0.0
config *.terminal[5].mob.centerLatitude 49.443
config *.terminal[5].mob.centerLongitude 1.099
config *.terminal[6].mob.radius 0.0
config *.terminal[6].mob.centerLatitude 37.992
config *.terminal[6].mob.centerLongitude -1.130
config *.terminal[7].mob.radius 0.0
config *.terminal[7].mob.centerLatitude 40.965
config *.terminal[7].mob.centerLongitude -5.664
config *.terminal[8].mob.radius 0.0
config *.terminal[8].mob.centerLatitude 40.657
config *.terminal[8].mob.centerLongitude -7.914
config *.terminal[9].mob.radius 0.0
config *.terminal[9].mob.centerLatitude 51.340
config *.terminal[9].mob.centerLongitude 12.373
config *.terminal[10].mob.radius 0.0
config *.terminal[10].mob.centerLatitude 51.455
config *.terminal[10].mob.centerLongitude 7.011
config *.terminal[11].mob.radius 0.0
config *.terminal[11].mob.centerLatitude 49.452
config *.terminal[11].mob.centerLongitude 11.076
config *.terminal[12].mob.radius 0.0
config *.terminal[12].mob.centerLatitude 43.769
config *.terminal[12].mob.centerLongitude 11.255
config *.terminal[13].mob.radius 0.0
config *.terminal[13].mob.centerLatitude 41.117
config *.terminal[13].mob.centerLongitude 16.871
config *.terminal[14].mob.radius 0.0
config *.terminal[14].mob.centerLatitude 52.132
config *.terminal[14].mob.centerLongitude 5.291
config *.terminal[15].mob.radius 0.0
config *.terminal[15].mob.centerLatitude 50.411
config *.terminal[15].mob.centerLongitude 4.444
config *.terminal[16].mob.radius 0.0
config *.terminal[16].mob.centerLatitude 47.559
config *.terminal[16].mob.centerLongitude 7.588
config *.terminal[17].mob.radius 0.0
config *.terminal[17].mob.centerLatitude 55.403
config *.terminal[17].mob.centerLongitude 10.402
config *.terminal[18].mob.radius 0.0
config *.terminal[18].mob.centerLatitude 59.858
config *.terminal[18].mob.centerLongitude 17.638
config *.terminal[19].mob.radius 0.0
config *.terminal[19].mob.centerLatitude 60.451
config *.terminal[19].mob.centerLongitude 22.266
config *.terminal[20].mob.radius 0.0
config *.terminal[20].mob.centerLatitude 56.325
config *.terminal[20].mob.centerLongitude 22.349
config *.terminal[21].mob.radius 0.0
config *.terminal[21].mob.centerLatitude 49.883
config *.terminal[21].mob.centerLongitude 18.568
config *.terminal[22].mob.radius 0.0
config *.terminal[22].mob.centerLatitude 47.531
config *.terminal[22].mob.centerLongitude 21.627
config *.terminal[23].mob.radius 0.0
config *.terminal[23].mob.centerLatitude 44.179
config *.terminal[23].mob.centerLongitude 28.649
config *.terminal[24].mob.radius 0.0
config *.terminal[24].mob.centerLatitude 45.327
config *.terminal[24].mob.centerLongitude 14.442
config *.terminal[25].mob.radius 0.0
config *.terminal[25].mob.centerLatitude 40.694
config *.terminal[25].mob.centerLongitude 30.400
config *.terminal[26].mob.radius 0.0
config *.terminal[26].mob.centerLatitude 37.066
config *.terminal[26].mob.centerLongitude 37.383
config *.terminal[27].mob.radius 0.0
config *.terminal[27].mob.centerLatitude 64.836
config *.terminal[27].mob.centerLongitude -23.708
config *.terminal[28].mob.radius 0.0
config *.terminal[28].mob.centerLatitude 28.099
config *.terminal[28].mob.centerLongitude -17.113
config *.terminal[29].mob.radius 0.0
config *.terminal[29].mob.centerLatitude 34.921
config *.terminal[29].mob.centerLongitude 33.623
config **.numStations 3
config **.numStations 3
config *.station[0].mobility.latitude 55.752
config *.station[0].mobility.longitude 37.616
config *.station[0].cityName "\"Moscow\""
config *.station[0].groundStationId 7
config *.station[0].routerAddr "\"10.0.0.29\""
config *.station[0].serving "\"10.0.0.29\""
config *.station[1].mobility.latitude 28.652
config *.station[1].mobility.longitude 77.231
config *.station[1].cityName "\"Delhi\""
config *.station[1].groundStationId 11
config *.station[1].routerAddr "\"10.0.0.45\""
config *.station[1].serving "\"10.0.0.45\""
config *.station[2].mobility.latitude 25.35
config *.station[2].mobility.longitude 51.24
config *.station[2].cityName "\"Katar\""
config *.station[2].groundStationId 19
config *.station[2].routerAddr "\"10.0.0.77\""
config *.station[2].serving "\"10.0.0.77\""
config *.visualizer.canvasVisualizer.mediumVisualizer.typename ""
config *.visualizer.*.radioVisualizer.displayAntennaLobes true
config *.visualizer.*.dataLinkVisualizer.displayLinks true
config *.visualizer.*.mobilityVisualizer.displayMovementTrails true
config *.visualizer.*.mobilityVisualizer.movementTrailLineWidth 1
config *.visualizer.*.mobilityVisualizer.trailLength 3000
config **.ttxStart_max 30s
config **.ttxIdle_min 10s
config **.ttxIdle_max 25s
config **.Ntw 2
config **.Ntx 45
config **.ttwDuration 550s

vector 0 Florasat_Individual_Sats.satellite[0].dlkDSL.mac "Satellite Position when Repetition Received" ETV
vector 1 Florasat_Individual_Sats.satellite[0].dlkDSL.mac "Repetition Position for Node 463 at Satellite" ETV
vector 2 Florasat_Individual_Sats.satellite[0].dlkDSL.mac "All Nodes Repetition Generation Delay at Satellite" ETV
vector 3 Florasat_Individual_Sats.satellite[0].dlkDSL.mac "Repetition Generation Delay for Node 463 at Satellite" ETV
vector 4 Florasat_Individual_Sats.satellite[0].dlkDSL.mac "All Nodes Message Generation Delay at Satellite" ETV
vector 5 Florasat_Individual_Sats.satellite[0].dlkDSL.mac "Message Generation Delay for Node 463 at Satellite" ETV
vector 6 Florasat_Individual_Sats.satellite[0].net.packetHandler "packets received" ETV
vector 7 Florasat_Individual_Sats.satellite[0].net.packetHandler "dropped unroutable" ETV
vector 8 Florasat_Individual_Sats.satellite[0].net.packetHandler "packets dropped" ETV
vector 9 Florasat_Individual_Sats.satellite[0].dlkDSL.mac "Repetition Position for Node 268 at Satellite" ETV
vector 10 Florasat_Individual_Sats.satellite[0].dlkDSL.mac "Repetition Generation Delay for Node 268 at Satellite" ETV
vector 11 Florasat_Individual_Sats.satellite[0].dlkDSL.mac "Message Generation Delay for Node 268 at Satellite" ETV
vector 12 Florasat_Individual_Sats.satellite[0].dlkDSL.mac "Repetition Position for Node 103 at Satellite" ETV
vector 13 Florasat_Individual_Sats.satellite[0].dlkDSL.mac "Repetition Generation Delay for Node 103 at Satellite" ETV
vector 14 Florasat_Individual_Sats.satellite[0].dlkDSL.mac "Message Generation Delay for Node 103 at Satellite" ETV
vector 15 Florasat_Individual_Sats.satellite[0].dlkDSL.mac "Repetition Position for Node 88 at Satellite" ETV
vector 16 Florasat_Individual_Sats.satellite[0].dlkDSL.mac "Repetition Generation Delay for Node 88 at Satellite" ETV
vector 17 Florasat_Individual_Sats.satellite[0].dlkDSL.mac "Message Generation Delay for Node 88 at Satellite" ETV
vector 18 Florasat_Individual_Sats.satellite[0].dlkDSL.mac "Repetition Position for Node 313 at Satellite" ETV
vector 19 Florasat_Individual_Sats.satellite[0].dlkDSL.mac "Repetition Generation Delay for Node 313 at Satellite" ETV
vector 20 Florasat_Individual_Sats.satellite[0].dlkDSL.mac "Message Generation Delay for Node 313 at Satellite" ETV
vector 21 Florasat_Individual_Sats.satellite[0].dlkDSL.mac "Repetition Position for Node 343 at Satellite" ETV
vector 22 Florasat_Individual_Sats.satellite[0].dlkDSL.mac "Repetition Generation Delay for Node 343 at Satellite" ETV
vector 23 Florasat_Individual_Sats.satellite[0].dlkDSL.mac "Message Generation Delay for Node 343 at Satellite" ETV
vector 24 Florasat_Individual_Sats.satellite[0].dlkDSL.mac "Repetition Position for Node 358 at Satellite" ETV
vector 25 Florasat_Individual_Sats.satellite[0].dlkDSL.mac "Repetition Generation Delay for Node 358 at Satellite" ETV
vector 26 Florasat_Individual_Sats.satellite[0].dlkDSL.mac "Message Generation Delay for Node 358 at Satellite" ETV
vector 27 Florasat_Individual_Sats.satellite[0].dlkDSL.mac "Repetition Position for Node 328 at Satellite" ETV
vector 28 Florasat_Individual_Sats.satellite[0].dlkDSL.mac "Repetition Generation Delay for Node 328 at Satellite" ETV
vector 29 Florasat_Individual_Sats.satellite[0].dlkDSL.mac "Message Generation Delay for Node 328 at Satellite" ETV
vector 30 Florasat_Individual_Sats.satellite[0].dlkDSL.mac "Repetition Position for Node 283 at Satellite" ETV
vector 31 Florasat_Individual_Sats.satellite[0].dlkDSL.mac "Repetition Generation Delay for Node 283 at Satellite" ETV
vector 32 Florasat_Individual_Sats.satellite[0].dlkDSL.mac "Message Generation Delay for Node 283 at Satellite" ETV
vector 33 Florasat_Individual_Sats.satellite[0].dlkDSL.mac "Repetition Position for Node 58 at Satellite" ETV
vector 34 Florasat_Individual_Sats.satellite[0].dlkDSL.mac "Repetition Generation Delay for Node 58 at Satellite" ETV
vector 35 Florasat_Individual_Sats.satellite[0].dlkDSL.mac "Message Generation Delay for Node 58 at Satellite" ETV
vector 36 Florasat_Individual_Sats.satellite[0].dlkDSL.mac "Repetition Position for Node 373 at Satellite" ETV
vector 37 Florasat_Individual_Sats.satellite[0].dlkDSL.mac "Repetition Generation Delay for Node 373 at Satellite" ETV
vector 38 Florasat_Individual_Sats.satellite[0].dlkDSL.mac "Message Generation Delay for Node 373 at Satellite" ETV
vector 39 Florasat_Individual_Sats.satellite[0].dlkDSL.mac "Repetition Position for Node 223 at Satellite" ETV
vector 40 Florasat_Individual_Sats.satellite[0].dlkDSL.mac "Repetition Generation Delay for Node 223 at Satellite" ETV
vector 41 Florasat_Individual_Sats.satellite[0].dlkDSL.mac "Message Generation Delay for Node 223 at Satellite" ETV
vector 42 Florasat_Individual_Sats.satellite[0].dlkDSL.mac "Repetition Position for Node 73 at Satellite" ETV
vector 43 Florasat_Individual_Sats.satellite[0].dlkDSL.mac "Repetition Generation Delay for Node 73 at Satellite" ETV
vector 44 Florasat_Individual_Sats.satellite[0].dlkDSL.mac "Message Generation Delay for Node 73 at Satellite" ETV
vector 45 Florasat_Individual_Sats.satellite[0].dlkDSL.mac "Repetition Position for Node 388 at Satellite" ETV
vector 46 Florasat_Individual_Sats.satellite[0].dlkDSL.mac "Repetition Generation Delay for Node 388 at Satellite" ETV
vector 47 Florasat_Individual_Sats.satellite[0].dlkDSL.mac "Message Generation Delay for Node 388 at Satellite" ETV
vector 48 Florasat_Individual_Sats.satellite[0].dlkDSL.mac "Repetition Position for Node 208 at Satellite" ETV
vector 49 Florasat_Individual_Sats.satellite[0].dlkDSL.mac "Repetition Generation Delay for Node 208 at Satellite" ETV
vector 50 Florasat_Individual_Sats.satellite[0].dlkDSL.mac "Message Generation Delay for Node 208 at Satellite" ETV
vector 51 Florasat_Individual_Sats.satellite[0].dlkDSL.mac "Repetition Position for Node 238 at Satellite" ETV
vector 52 Florasat_Individual_Sats.satellite[0].dlkDSL.mac "Repetition Generation Delay for Node 238 at Satellite" ETV
vector 53 Florasat_Individual_Sats.satellite[0].dlkDSL.mac "Message Generation Delay for Node 238 at Satellite" ETV
vector 54 Florasat_Individual_Sats.satellite[0].dlkDSL.mac "Repetition Position for Node 403 at Satellite" ETV
vector 55 Florasat_Individual_Sats.satellite[0].dlkDSL.mac "Repetition Generation Delay for Node 403 at Satellite" ETV
vector 56 Florasat_Individual_Sats.satellite[0].dlkDSL.mac "Message Generation Delay for Node 403 at Satellite" ETV
vector 57 Florasat_Individual_Sats.satellite[0].dlkDSL.mac "Repetition Position for Node 163 at Satellite" ETV
vector 58 Florasat_Individual_Sats.satellite[0].dlkDSL.mac "Repetition Generation Delay for Node 163 at Satellite" ETV
vector 59 Florasat_Individual_Sats.satellite[0].dlkDSL.mac "Message Generation Delay for Node 163 at Satellite" ETV
vector 60 Florasat_Individual_Sats.satellite[0].dlkDSL.mac "Repetition Position for Node 118 at Satellite" ETV
vector 61 Florasat_Individual_Sats.satellite[0].dlkDSL.mac "Repetition Generation Delay for Node 118 at Satellite" ETV
vector 62 Florasat_Individual_Sats.satellite[0].dlkDSL.mac "Message Generation Delay for Node 118 at Satellite" ETV
vector 63 Florasat_Individual_Sats.satellite[0].dlkDSL.mac "Repetition Position for Node 418 at Satellite" ETV
vector 64 Florasat_Individual_Sats.satellite[0].dlkDSL.mac "Repetition Generation Delay for Node 418 at Satellite" ETV
vector 65 Florasat_Individual_Sats.satellite[0].dlkDSL.mac "Message Generation Delay for Node 418 at Satellite" ETV
vector 66 Florasat_Individual_Sats.satellite[0].dlkDSL.mac "Repetition Position for Node 433 at Satellite" ETV
vector 67 Florasat_Individual_Sats.satellite[0].dlkDSL.mac "Repetition Generation Delay for Node 433 at Satellite" ETV
vector 68 Florasat_Individual_Sats.satellite[0].dlkDSL.mac "Message Generation Delay for Node 433 at Satellite" ETV
vector 69 Florasat_Individual_Sats.satellite[0].dlkDSL.mac "Repetition Position for Node 193 at Satellite" ETV
vector 70 Florasat_Individual_Sats.satellite[0].dlkDSL.mac "Repetition Generation Delay for Node 193 at Satellite" ETV
vector 71 Florasat_Individual_Sats.satellite[0].dlkDSL.mac "Message Generation Delay for Node 193 at Satellite" ETV
vector 72 Florasat_Individual_Sats.satellite[0].dlkDSL.mac "Repetition Position for Node 448 at Satellite" ETV
vector 73 Florasat_Individual_Sats.satellite[0].dlkDSL.mac "Repetition Generation Delay for Node 448 at Satellite" ETV
vector 74 Florasat_Individual_Sats.satellite[0].dlkDSL.mac "Message Generation Delay for Node 448 at Satellite" ETV
vector 75 Florasat_Individual_Sats.satellite[0].dlkDSL.mac "Repetition Position for Node 148 at Satellite" ETV
vector 76 Florasat_Individual_Sats.satellite[0].dlkDSL.mac "Repetition Generation Delay for Node 148 at Satellite" ETV
vector 77 Florasat_Individual_Sats.satellite[0].dlkDSL.mac "Message Generation Delay for Node 148 at Satellite" ETV
vector 78 Florasat_Individual_Sats.satellite[0].dlkDSL.mac "Repetition Position for Node 298 at Satellite" ETV
vector 79 Florasat_Individual_Sats.satellite[0].dlkDSL.mac "Repetition Generation Delay for Node 298 at Satellite" ETV
vector 80 Florasat_Individual_Sats.satellite[0].dlkDSL.mac "Message Generation Delay for Node 298 at Satellite" ETV
vector 81 Florasat_Individual_Sats.satellite[0].dlkDSL.mac "Repetition Position for Node 133 at Satellite" ETV
vector 82 Florasat_Individual_Sats.satellite[0].dlkDSL.mac "Repetition Generation Delay for Node 133 at Satellite" ETV
vector 83 Florasat_Individual_Sats.satellite[0].dlkDSL.mac "Message Generation Delay for Node 133 at Satellite" ETV
vector 84 Florasat_Individual_Sats.satellite[0].dlkDSL.mac "Repetition Position for Node 253 at Satellite" ETV
vector 85 Florasat_Individual_Sats.satellite[0].dlkDSL.mac "Repetition Generation Delay for Node 253 at Satellite" ETV
vector 86 Florasat_Individual_Sats.satellite[0].dlkDSL.mac "Message Generation Delay for Node 253 at Satellite" ETV
0	18978 4077 164 4155 9.51575733781 447.17639745671 153 180 180 27540 4957200
1	23055 127 164 1634 9.51575733781 134.89490270557 5 180 180 900 162000
2	23182 5876 164 4155 9.51575733781 447.17639745671 153 8.51575733781 446.17639745671 31351.99831181 7830632.3937969
3	29058 182 164 1634 9.51575733781 134.89490270557 5 8.51575733781 133.89490270557 330.89842696389 33727.196950226
4	29240 1017 164 3058 9.51575733781 247.30568720951 27 8.51575733781 246.30568720951 3413.6768026102 606123.35788616
5	30257 34 164 164 9.51575733781 9.51575733781 1 8.51575733781 8.51575733781 8.51575733781 72.518123036465
6	30291 3969 165 4156 9.51575733781 447.17639745671 153 1 153 11781 1205589
7	34260 3969 165 4156 9.51575733781 447.17639745671 153 1 153 11781 1205589
8	38229 3969 165 4156 9.51575733781 447.17639745671 153 1 153 11781 1205589
9	42198 133 368 3203 32.51435665241 252.52834491724 5 180 180 900 162000
10	42331 197 368 3203 32.51435665241 252.52834491724 5 31.51435665241 251.52834491724 815.4067001347 164317.77349162
11	42528 37 368 368 32.51435665241 32.51435665241 1 31.51435665241 31.51435665241 31.51435665241 993.1546752153
12	42565 108 385 2981 34.15426315836 241.21581722264 4 180 180 720 129600
13	42673 153 385 2981 34.15426315836 241.21581722264 4 33.15426315836 240.21581722264 530.55668157352 95029.853122086
14	42826 37 385 385 34.15426315836 34.15426315836 1 33.15426315836 33.15426315836 33.15426315836 1099.2051655738
15	42863 301 444 3216 39.42169859184 255.23086637485 11 180 180 1980 356400
16	43164 429 444 3216 39.42169859184 255.23086637485 11 38.42169859184 254.23086637485 1732.2653160433 331197.56377351
17	43593 37 444 444 39.42169859184 39.42169859184 1 38.42169859184 38.42169859184 38.42169859184 1476.2269226822
18	43630 165 448 2895 39.50387152089 235.2392915782 6 180 180 1080 194400
19	43795 235 448 2895 39.50387152089 235.2392915782 6 38.50387152089 234.2392915782 860.73999248204 146905.12164973
20	44030 37 448 448 39.50387152089 39.50387152089 1 38.50387152089 38.50387152089 38.50387152089 1482.5481220972
21	44067 359 460 3395 41.02840116657 279.85414350464 13 180 180 2340 421200
22	44426 512 460 3395 41.02840116657 279.85414350464 13 40.02840116657 278.85414350464 2179.7451852728 430205.1090197
23	44938 37 460 460 41.02840116657 41.02840116657 1 40.02840116657 40.02840116657 40.02840116657 1602.2728999519
24	44975 275 475 3232 42.09320378666 257.67138887257 10 180 180 1800 324000
25	45250 392 475 3232 42.09320378666 257.67138887257 10 41.09320378666 256.67138887257 1585.6694820141 304528.49501139
26	45642 37 475 475 42.09320378666 42.09320378666 1 41.09320378666 41.09320378666 41.09320378666 1688.651397452
27	45679 304 502 3386 44.47014652535 278.52459473645 11 180 180 1980 356400
28	45983 433 502 3386 44.47014652535 278.52459473645 11 43.47014652535 277.52459473645 1993.6798227965 410058.60021091
29	46416 37 502 502 44.47014652535 44.47014652535 1 43.47014652535 43.47014652535 43.47014652535 1889.6536389354
30	46453 54 671 2920 52.33022180948 237.51319548561 2 180 180 360 64800
31	46507 77 671 2920 52.33022180948 237.51319548561 2 51.33022180948 236.51319548561 287.84341729509 58573.283309825
32	46584 37 671 671 52.33022180948 52.33022180948 1 51.33022180948 51.33022180948 51.33022180948 2634.7916710104
33	46621 246 729 2966 58.24038587272 240.07023405626 9 180 180 1620 291600
34	46867 350 729 2966 58.24038587272 240.07023405626 9 57.24038587272 239.07023405626 1201.3774933115 191290.77282747
35	47217 37 729 729 58.24038587272 58.24038587272 1 57.24038587272 57.24038587272 57.24038587272 3276.4617748579
36	47254 83 1067 3319 92.16295622399 265.05575598676 3 180 180 540 97200
37	47337 118 1067 3319 92.16295622399 265.05575598676 3 91.16295622399 264.05575598676 595.81618370863 135923.27014841
38	47455 38 1067 1067 92.16295622399 92.16295622399 1 91.16295622399 91.16295622399 91.16295622399 8310.6845874971
39	47493 279 1147 3893 98.97944442988 383.70274664663 10 180 180 1800 324000
40	47772 398 1147 3893 98.97944442988 383.70274664663 10 97.97944442988 382.70274664663 2863.6311721234 894255.24412383
41	48170 38 1147 1147 98.97944442988 98.97944442988 1 97.97944442988 97.97944442988 97.97944442988 9599.9715307879
42	48208 140 1326 3221 107.09083003984 255.62579877969 5 180 180 900 162000
43	48348 200 1326 3221 107.09083003984 255.62579877969 5 106.09083003984 254.62579877969 973.1895625261 203993.60788594
44	48548 40 1326 1326 107.09083003984 107.09083003984 1 106.09083003984 106.09083003984 106.09083003984 11255.264218542
45	48588 223 1533 3348 127.08326566143 271.20035330643 8 180 180 1440 259200
46	48811 318 1533 3348 127.08326566143 271.20035330643 8 126.08326566143 270.20035330643 1613.9338435721 343756.99762466
47	49129 40 1533 1533 127.08326566143 127.08326566143 1 126.08326566143 126.08326566143 126.08326566143 15896.989879851
48	49169 112 1650 3090 136.50564234415 250.19752021008 4 180 180 720 129600
49	49281 160 1650 3090 136.50564234415 250.19752021008 4 135.50564234415 249.19752021008 778.1672004858 158446.91867824
50	49441 40 1650 1650 136.50564234415 136.50564234415 1 135.50564234415 135.50564234415 135.50564234415 18361.779107101
51	49481 250 1773 4155 148.94022862654 447.17639745671 9 180 180 1620 291600
52	49731 356 1773 4155 148.94022862654 447.17639745671 9 147.94022862654 446.17639745671 2887.8602192594 1030771.3880928
53	50087 40 1773 1773 148.94022862654 148.94022862654 1 147.94022862654 147.94022862654 147.94022862654 21886.311246073
54	50127 56 1913 2123 153.64069288228 172.48331182501 2 180 180 360 64800
55	50183 80 1913 2123 153.64069288228 172.48331182501 2 152.64069288228 171.48331182501 324.12400470729 52705.707358056
56	50263 40 1913 1913 153.64069288228 153.64069288228 1 152.64069288228 152.64069288228 152.64069288228 23299.181123583
57	50303 139 2060 3459 164.93257479139 290.2707194756 5 180 180 900 162000
58	50442 198 2060 3459 164.93257479139 290.2707194756 5 163.93257479139 289.2707194756 1205.3614132526 300046.00491713
59	50640 40 2060 2060 164.93257479139 164.93257479139 1 163.93257479139 163.93257479139 163.93257479139 26873.889077735
60	50680 140 2140 3335 173.83388606125 267.88308929644 5 180 180 900 162000
61	50820 200 2140 3335 173.83388606125 267.88308929644 5 172.83388606125 266.88308929644 1098.6035785121 247291.61326635
62	51020 40 2140 2140 173.83388606125 173.83388606125 1 172.83388606125 172.83388606125 172.83388606125 29871.552171033
63	51060 224 2394 4145 196.15064035395 446.22741501537 8 180 180 1440 259200
64	51284 320 2394 4145 196.15064035395 446.22741501537 8 195.15064035395 445.22741501537 2725.5228814003 1003768.4009897
65	51604 40 2394 2394 196.15064035395 196.15064035395 1 195.15064035395 195.15064035395 195.15064035395 38083.772430557
66	51644 84 2419 2883 198.22004366776 233.87193814728 3 180 180 540 97200
67	51728 120 2419 2883 198.22004366776 233.87193814728 3 197.22004366776 232.87193814728 638.02797780166 136362.46362773
68	51848 40 2419 2419 198.22004366776 198.22004366776 1 197.22004366776 197.22004366776 197.22004366776 38895.745624313
69	51888 195 2876 3817 233.40222474053 354.97783495212 7 180 180 1260 226800
70	52083 278 2876 3817 233.40222474053 354.97783495212 7 232.40222474053 353.97783495212 2065.1299240295 621193.07949631
71	52361 40 2876 2876 233.40222474053 233.40222474053 1 232.40222474053 232.40222474053 232.40222474053 54010.794064348
72	52401 55 2947 3423 239.42998656749 281.6212396112 2 180 180 360 64800
73	52456 78 2947 3423 239.42998656749 281.6212396112 2 238.42998656749 280.6212396112 519.05122617869 135597.1386155
74	52534 40 2947 2947 239.42998656749 239.42998656749 1 238.42998656749 238.42998656749 238.42998656749 56848.858494573
75	52574 28 3000 3000 242.05392206264 242.05392206264 1 180 180 180 32400
76	52602 40 3000 3000 242.05392206264 242.05392206264 1 241.05392206264 241.05392206264 241.05392206264 58106.993341781
77	52642 40 3000 3000 242.05392206264 242.05392206264 1 241.05392206264 241.05392206264 241.05392206264 58106.993341781
78	52682 84 3010 3480 243.23593007344 296.48640294969 3 180 180 540 97200
79	52766 120 3010 3480 243.23593007344 296.48640294969 3 242.23593007344 295.48640294969 814.600456641 222651.95548484
80	52886 40 3010 3010 243.23593007344 243.23593007344 1 242.23593007344 242.23593007344 242.23593007344 58678.245818545
81	52926 28 3028 3028 244.43654045209 244.43654045209 1 180 180 180 32400
82	52954 40 3028 3028 244.43654045209 244.43654045209 1 243.43654045209 243.43654045209 243.43654045209 59261.349227282
83	52994 40 3028 3028 244.43654045209 244.43654045209 1 243.43654045209 243.43654045209 243.43654045209 59261.349227282
84	53034 28 3058 3058 247.30568720951 247.30568720951 1 180 180 180 32400
85	53062 40 3058 3058 247.30568720951 247.30568720951 1 246.30568720951 246.30568720951 246.30568720951 60666.491551749
86	53102 40 3058 3058 247.30568720951 247.30568720951 1 246.30568720951 246.30568720951 246.30568720951 60666.491551749

