file 48398 1779838408                                           
version 3
run General-9-20260527-01:33:23-720927
attr configname General
attr datetime 20260527-01:33:23
attr datetimef 20260527-013323
attr experiment General
attr inifile Test_MLModel_1.ini
attr iterationvars $0=92115
attr iterationvarsd 92115
attr iterationvarsf 92115-
attr measurement $0=92115
attr network Florasat.Test_Individual.Florasat_Individual_Sats
attr processid 720927
attr repetition 9
attr replication #9
attr resultdir results
attr runnumber 9
attr seedset 9
config *.satellite[0].NoradModule.raan 185
config *.stats_altitude 670
config *.stats_raan 185
config image-path ../../images:../../../../samples/inet4.5_2/images
config network Florasat.Test_Individual.Florasat_Individual_Sats
config rng-class cMersenneTwister
config *.**.result-recording-modes -
config **.result-recording-modes -
config **.statistic-recording true
config **.scalar-recording true
config **.vector-recording true
config **.vector-record-eventnumbers true
config repeat 10
config seed-0-mt 92115
config sim-time-limit 749s
config simtime-resolution -11
config **.stats_altitude 670
config **.stats_raan 185
config *.radioMedium.backgroundNoise.power -110dBm
config *.radioMedium.mediumLimitCache.centerFrequency 868MHz
config *.radioMedium.mediumLimitCache.maxTransmissionDuration 4s
config *.radioMedium.mediumLimitCache.minInterferenceTime 0s
config **.numSatellites 1
config *.satellite[*].mobilityType "\"Sat_Mob_SatelliteMobility_Standalone\""
config *.satellite[*].noradModuleType "\"Sat_Mob_NoradA\""
config **.satellite[*].**.initFromDisplayString false
config *.satellite[*].mobility.faceForward true
config *.satellite[*].mobility.updateInterval 20s
config *.satellite[*].NoradModule.satName "\"FLoRaSat\""
config *.satellite[*].NoradModule.satIndex -1
config *.satellite[*].NoradModule.baseYear 20
config *.satellite[*].NoradModule.baseDay 1.5
config *.satellite[*].NoradModule.planes 1
config *.satellite[*].NoradModule.satPerPlane 1
config *.satellite[*].NoradModule.eccentricity 0.000001
config *.satellite[*].NoradModule.inclination 98
config *.satellite[*].NoradModule.altitude 670
config *.satellite[0].NoradModule.raan 185
config *.satellite[0].NoradModule.meanAnomaly 195
config *.satellite[*].phyDSL.radio.receiver.enableCollisionOverlap true
config *.satellite[*].phyDSL.radio.receiver.minCollisionOverlap 0s
config *.satellite[*].phyDSL.radio.antenna.typename ConstantGainAntenna
config *.satellite[*].phyDSL.radio.antenna.mobilityModule "\"^.^.^.mobility\""
config *.satellite[*].phyISL.radio.antenna.mobilityModule "\"^.^.^.mobility\""
config *.satellite[*].phyGSL.radio.antenna.mobilityModule "\"^.^.^.mobility\""
config *.satellite[*].phyDSL.radio.antenna.gain 12dB
config *.satellite[*].net.routingType "\"Null_Routing\""
config *.terminal[*].net.routingType "\"Ter_Null_Routing\""
config *.**.numGroundLinks 40
config *.satellite[*].**.interfaceTableModule "\"\""
config **.radioMedium.typename LoRaMedium
config **.radioMedium.analogModel.typename LoRaAnalogModel
config **.intraPlaneIslDisabled false
config **.interPlaneIslDisabled false
config **.numTerminals 30
config *.terminal[*].phy.radio.antenna.mobilityModule "\"^.^.^.mob\""
config *.terminal[*].dlk.mac.interfaceTableModule "\"\""
config *.terminal[*].dlk.energySourceModule "\"\""
config *.terminal[*].dlk.mac.LoRaTP "intuniform(12, 14)"
config *.terminal[*].dlk.mac.LoRaSF "intuniform(10, 12)"
config *.terminal[*].dlk.mac.useMLBox true
config *.terminal[*].dlk.mac.mlBox.modelPath "\"/home/ylnner/Documents/omnet++/omnetpp-6.3.0/projects/florasat_v4_ult_routing/simulations/Test_Individual/mlmodels/transformer_scripted.pt\""
config **.numberOfPacketsToSend 0
config **.timeToFirstPacket 1s
config **.timeToNextPacket 50s
config *.terminal[0].mob.radius 0.0
config *.terminal[0].mob.centerLatitude 54.978
config *.terminal[0].mob.centerLongitude -1.617
config *.terminal[1].mob.radius 0.0
config *.terminal[1].mob.centerLatitude 52.630
config *.terminal[1].mob.centerLongitude -1.139
config *.terminal[2].mob.radius 0.0
config *.terminal[2].mob.centerLatitude 52.612
config *.terminal[2].mob.centerLongitude -6.295
config *.terminal[3].mob.radius 0.0
config *.terminal[3].mob.centerLatitude 47.243
config *.terminal[3].mob.centerLongitude 6.024
config *.terminal[4].mob.radius 0.0
config *.terminal[4].mob.centerLatitude 43.610
config *.terminal[4].mob.centerLongitude 3.876
config *.terminal[5].mob.radius 0.0
config *.terminal[5].mob.centerLatitude 49.443
config *.terminal[5].mob.centerLongitude 1.099
config *.terminal[6].mob.radius 0.0
config *.terminal[6].mob.centerLatitude 37.992
config *.terminal[6].mob.centerLongitude -1.130
config *.terminal[7].mob.radius 0.0
config *.terminal[7].mob.centerLatitude 40.965
config *.terminal[7].mob.centerLongitude -5.664
config *.terminal[8].mob.radius 0.0
config *.terminal[8].mob.centerLatitude 40.657
config *.terminal[8].mob.centerLongitude -7.914
config *.terminal[9].mob.radius 0.0
config *.terminal[9].mob.centerLatitude 51.340
config *.terminal[9].mob.centerLongitude 12.373
config *.terminal[10].mob.radius 0.0
config *.terminal[10].mob.centerLatitude 51.455
config *.terminal[10].mob.centerLongitude 7.011
config *.terminal[11].mob.radius 0.0
config *.terminal[11].mob.centerLatitude 49.452
config *.terminal[11].mob.centerLongitude 11.076
config *.terminal[12].mob.radius 0.0
config *.terminal[12].mob.centerLatitude 43.769
config *.terminal[12].mob.centerLongitude 11.255
config *.terminal[13].mob.radius 0.0
config *.terminal[13].mob.centerLatitude 41.117
config *.terminal[13].mob.centerLongitude 16.871
config *.terminal[14].mob.radius 0.0
config *.terminal[14].mob.centerLatitude 52.132
config *.terminal[14].mob.centerLongitude 5.291
config *.terminal[15].mob.radius 0.0
config *.terminal[15].mob.centerLatitude 50.411
config *.terminal[15].mob.centerLongitude 4.444
config *.terminal[16].mob.radius 0.0
config *.terminal[16].mob.centerLatitude 47.559
config *.terminal[16].mob.centerLongitude 7.588
config *.terminal[17].mob.radius 0.0
config *.terminal[17].mob.centerLatitude 55.403
config *.terminal[17].mob.centerLongitude 10.402
config *.terminal[18].mob.radius 0.0
config *.terminal[18].mob.centerLatitude 59.858
config *.terminal[18].mob.centerLongitude 17.638
config *.terminal[19].mob.radius 0.0
config *.terminal[19].mob.centerLatitude 60.451
config *.terminal[19].mob.centerLongitude 22.266
config *.terminal[20].mob.radius 0.0
config *.terminal[20].mob.centerLatitude 56.325
config *.terminal[20].mob.centerLongitude 22.349
config *.terminal[21].mob.radius 0.0
config *.terminal[21].mob.centerLatitude 49.883
config *.terminal[21].mob.centerLongitude 18.568
config *.terminal[22].mob.radius 0.0
config *.terminal[22].mob.centerLatitude 47.531
config *.terminal[22].mob.centerLongitude 21.627
config *.terminal[23].mob.radius 0.0
config *.terminal[23].mob.centerLatitude 44.179
config *.terminal[23].mob.centerLongitude 28.649
config *.terminal[24].mob.radius 0.0
config *.terminal[24].mob.centerLatitude 45.327
config *.terminal[24].mob.centerLongitude 14.442
config *.terminal[25].mob.radius 0.0
config *.terminal[25].mob.centerLatitude 40.694
config *.terminal[25].mob.centerLongitude 30.400
config *.terminal[26].mob.radius 0.0
config *.terminal[26].mob.centerLatitude 37.066
config *.terminal[26].mob.centerLongitude 37.383
config *.terminal[27].mob.radius 0.0
config *.terminal[27].mob.centerLatitude 64.836
config *.terminal[27].mob.centerLongitude -23.708
config *.terminal[28].mob.radius 0.0
config *.terminal[28].mob.centerLatitude 28.099
config *.terminal[28].mob.centerLongitude -17.113
config *.terminal[29].mob.radius 0.0
config *.terminal[29].mob.centerLatitude 34.921
config *.terminal[29].mob.centerLongitude 33.623
config **.numStations 3
config **.numStations 3
config *.station[0].mobility.latitude 55.752
config *.station[0].mobility.longitude 37.616
config *.station[0].cityName "\"Moscow\""
config *.station[0].groundStationId 7
config *.station[0].routerAddr "\"10.0.0.29\""
config *.station[0].serving "\"10.0.0.29\""
config *.station[1].mobility.latitude 28.652
config *.station[1].mobility.longitude 77.231
config *.station[1].cityName "\"Delhi\""
config *.station[1].groundStationId 11
config *.station[1].routerAddr "\"10.0.0.45\""
config *.station[1].serving "\"10.0.0.45\""
config *.station[2].mobility.latitude 25.35
config *.station[2].mobility.longitude 51.24
config *.station[2].cityName "\"Katar\""
config *.station[2].groundStationId 19
config *.station[2].routerAddr "\"10.0.0.77\""
config *.station[2].serving "\"10.0.0.77\""
config *.visualizer.canvasVisualizer.mediumVisualizer.typename ""
config *.visualizer.*.radioVisualizer.displayAntennaLobes true
config *.visualizer.*.dataLinkVisualizer.displayLinks true
config *.visualizer.*.mobilityVisualizer.displayMovementTrails true
config *.visualizer.*.mobilityVisualizer.movementTrailLineWidth 1
config *.visualizer.*.mobilityVisualizer.trailLength 3000
config **.ttxStart_max 30s
config **.ttxIdle_min 10s
config **.ttxIdle_max 25s
config **.Ntw 2
config **.Ntx 45
config **.ttwDuration 550s

vector 0 Florasat_Individual_Sats.satellite[0].dlkDSL.mac "Satellite Position when Repetition Received" ETV
vector 1 Florasat_Individual_Sats.satellite[0].dlkDSL.mac "Repetition Position for Node 58 at Satellite" ETV
vector 2 Florasat_Individual_Sats.satellite[0].dlkDSL.mac "All Nodes Repetition Generation Delay at Satellite" ETV
vector 3 Florasat_Individual_Sats.satellite[0].dlkDSL.mac "Repetition Generation Delay for Node 58 at Satellite" ETV
vector 4 Florasat_Individual_Sats.satellite[0].dlkDSL.mac "All Nodes Message Generation Delay at Satellite" ETV
vector 5 Florasat_Individual_Sats.satellite[0].dlkDSL.mac "Message Generation Delay for Node 58 at Satellite" ETV
vector 6 Florasat_Individual_Sats.satellite[0].net.packetHandler "packets received" ETV
vector 7 Florasat_Individual_Sats.satellite[0].net.packetHandler "dropped unroutable" ETV
vector 8 Florasat_Individual_Sats.satellite[0].net.packetHandler "packets dropped" ETV
vector 9 Florasat_Individual_Sats.satellite[0].dlkDSL.mac "Repetition Position for Node 358 at Satellite" ETV
vector 10 Florasat_Individual_Sats.satellite[0].dlkDSL.mac "Repetition Generation Delay for Node 358 at Satellite" ETV
vector 11 Florasat_Individual_Sats.satellite[0].dlkDSL.mac "Message Generation Delay for Node 358 at Satellite" ETV
vector 12 Florasat_Individual_Sats.satellite[0].dlkDSL.mac "Repetition Position for Node 463 at Satellite" ETV
vector 13 Florasat_Individual_Sats.satellite[0].dlkDSL.mac "Repetition Generation Delay for Node 463 at Satellite" ETV
vector 14 Florasat_Individual_Sats.satellite[0].dlkDSL.mac "Message Generation Delay for Node 463 at Satellite" ETV
vector 15 Florasat_Individual_Sats.satellite[0].dlkDSL.mac "Repetition Position for Node 328 at Satellite" ETV
vector 16 Florasat_Individual_Sats.satellite[0].dlkDSL.mac "Repetition Generation Delay for Node 328 at Satellite" ETV
vector 17 Florasat_Individual_Sats.satellite[0].dlkDSL.mac "Message Generation Delay for Node 328 at Satellite" ETV
vector 18 Florasat_Individual_Sats.satellite[0].dlkDSL.mac "Repetition Position for Node 418 at Satellite" ETV
vector 19 Florasat_Individual_Sats.satellite[0].dlkDSL.mac "Repetition Generation Delay for Node 418 at Satellite" ETV
vector 20 Florasat_Individual_Sats.satellite[0].dlkDSL.mac "Message Generation Delay for Node 418 at Satellite" ETV
vector 21 Florasat_Individual_Sats.satellite[0].dlkDSL.mac "Repetition Position for Node 343 at Satellite" ETV
vector 22 Florasat_Individual_Sats.satellite[0].dlkDSL.mac "Repetition Generation Delay for Node 343 at Satellite" ETV
vector 23 Florasat_Individual_Sats.satellite[0].dlkDSL.mac "Message Generation Delay for Node 343 at Satellite" ETV
vector 24 Florasat_Individual_Sats.satellite[0].dlkDSL.mac "Repetition Position for Node 73 at Satellite" ETV
vector 25 Florasat_Individual_Sats.satellite[0].dlkDSL.mac "Repetition Generation Delay for Node 73 at Satellite" ETV
vector 26 Florasat_Individual_Sats.satellite[0].dlkDSL.mac "Message Generation Delay for Node 73 at Satellite" ETV
vector 27 Florasat_Individual_Sats.satellite[0].dlkDSL.mac "Repetition Position for Node 133 at Satellite" ETV
vector 28 Florasat_Individual_Sats.satellite[0].dlkDSL.mac "Repetition Generation Delay for Node 133 at Satellite" ETV
vector 29 Florasat_Individual_Sats.satellite[0].dlkDSL.mac "Message Generation Delay for Node 133 at Satellite" ETV
vector 30 Florasat_Individual_Sats.satellite[0].dlkDSL.mac "Repetition Position for Node 298 at Satellite" ETV
vector 31 Florasat_Individual_Sats.satellite[0].dlkDSL.mac "Repetition Generation Delay for Node 298 at Satellite" ETV
vector 32 Florasat_Individual_Sats.satellite[0].dlkDSL.mac "Message Generation Delay for Node 298 at Satellite" ETV
vector 33 Florasat_Individual_Sats.satellite[0].dlkDSL.mac "Repetition Position for Node 193 at Satellite" ETV
vector 34 Florasat_Individual_Sats.satellite[0].dlkDSL.mac "Repetition Generation Delay for Node 193 at Satellite" ETV
vector 35 Florasat_Individual_Sats.satellite[0].dlkDSL.mac "Message Generation Delay for Node 193 at Satellite" ETV
vector 36 Florasat_Individual_Sats.satellite[0].dlkDSL.mac "Repetition Position for Node 313 at Satellite" ETV
vector 37 Florasat_Individual_Sats.satellite[0].dlkDSL.mac "Repetition Generation Delay for Node 313 at Satellite" ETV
vector 38 Florasat_Individual_Sats.satellite[0].dlkDSL.mac "Message Generation Delay for Node 313 at Satellite" ETV
vector 39 Florasat_Individual_Sats.satellite[0].dlkDSL.mac "Repetition Position for Node 223 at Satellite" ETV
vector 40 Florasat_Individual_Sats.satellite[0].dlkDSL.mac "Repetition Generation Delay for Node 223 at Satellite" ETV
vector 41 Florasat_Individual_Sats.satellite[0].dlkDSL.mac "Message Generation Delay for Node 223 at Satellite" ETV
vector 42 Florasat_Individual_Sats.satellite[0].dlkDSL.mac "Repetition Position for Node 283 at Satellite" ETV
vector 43 Florasat_Individual_Sats.satellite[0].dlkDSL.mac "Repetition Generation Delay for Node 283 at Satellite" ETV
vector 44 Florasat_Individual_Sats.satellite[0].dlkDSL.mac "Message Generation Delay for Node 283 at Satellite" ETV
vector 45 Florasat_Individual_Sats.satellite[0].dlkDSL.mac "Repetition Position for Node 268 at Satellite" ETV
vector 46 Florasat_Individual_Sats.satellite[0].dlkDSL.mac "Repetition Generation Delay for Node 268 at Satellite" ETV
vector 47 Florasat_Individual_Sats.satellite[0].dlkDSL.mac "Message Generation Delay for Node 268 at Satellite" ETV
vector 48 Florasat_Individual_Sats.satellite[0].dlkDSL.mac "Repetition Position for Node 253 at Satellite" ETV
vector 49 Florasat_Individual_Sats.satellite[0].dlkDSL.mac "Repetition Generation Delay for Node 253 at Satellite" ETV
vector 50 Florasat_Individual_Sats.satellite[0].dlkDSL.mac "Message Generation Delay for Node 253 at Satellite" ETV
vector 51 Florasat_Individual_Sats.satellite[0].dlkDSL.mac "Repetition Position for Node 208 at Satellite" ETV
vector 52 Florasat_Individual_Sats.satellite[0].dlkDSL.mac "Repetition Generation Delay for Node 208 at Satellite" ETV
vector 53 Florasat_Individual_Sats.satellite[0].dlkDSL.mac "Message Generation Delay for Node 208 at Satellite" ETV
vector 54 Florasat_Individual_Sats.satellite[0].dlkDSL.mac "Repetition Position for Node 388 at Satellite" ETV
vector 55 Florasat_Individual_Sats.satellite[0].dlkDSL.mac "Repetition Generation Delay for Node 388 at Satellite" ETV
vector 56 Florasat_Individual_Sats.satellite[0].dlkDSL.mac "Message Generation Delay for Node 388 at Satellite" ETV
vector 57 Florasat_Individual_Sats.satellite[0].dlkDSL.mac "Repetition Position for Node 403 at Satellite" ETV
vector 58 Florasat_Individual_Sats.satellite[0].dlkDSL.mac "Repetition Generation Delay for Node 403 at Satellite" ETV
vector 59 Florasat_Individual_Sats.satellite[0].dlkDSL.mac "Message Generation Delay for Node 403 at Satellite" ETV
vector 60 Florasat_Individual_Sats.satellite[0].dlkDSL.mac "Repetition Position for Node 178 at Satellite" ETV
vector 61 Florasat_Individual_Sats.satellite[0].dlkDSL.mac "Repetition Generation Delay for Node 178 at Satellite" ETV
vector 62 Florasat_Individual_Sats.satellite[0].dlkDSL.mac "Message Generation Delay for Node 178 at Satellite" ETV
vector 63 Florasat_Individual_Sats.satellite[0].dlkDSL.mac "Repetition Position for Node 238 at Satellite" ETV
vector 64 Florasat_Individual_Sats.satellite[0].dlkDSL.mac "Repetition Generation Delay for Node 238 at Satellite" ETV
vector 65 Florasat_Individual_Sats.satellite[0].dlkDSL.mac "Message Generation Delay for Node 238 at Satellite" ETV
vector 66 Florasat_Individual_Sats.satellite[0].dlkDSL.mac "Repetition Position for Node 448 at Satellite" ETV
vector 67 Florasat_Individual_Sats.satellite[0].dlkDSL.mac "Repetition Generation Delay for Node 448 at Satellite" ETV
vector 68 Florasat_Individual_Sats.satellite[0].dlkDSL.mac "Message Generation Delay for Node 448 at Satellite" ETV
vector 69 Florasat_Individual_Sats.satellite[0].dlkDSL.mac "Repetition Position for Node 88 at Satellite" ETV
vector 70 Florasat_Individual_Sats.satellite[0].dlkDSL.mac "Repetition Generation Delay for Node 88 at Satellite" ETV
vector 71 Florasat_Individual_Sats.satellite[0].dlkDSL.mac "Message Generation Delay for Node 88 at Satellite" ETV
vector 72 Florasat_Individual_Sats.satellite[0].dlkDSL.mac "Repetition Position for Node 373 at Satellite" ETV
vector 73 Florasat_Individual_Sats.satellite[0].dlkDSL.mac "Repetition Generation Delay for Node 373 at Satellite" ETV
vector 74 Florasat_Individual_Sats.satellite[0].dlkDSL.mac "Message Generation Delay for Node 373 at Satellite" ETV
vector 75 Florasat_Individual_Sats.satellite[0].dlkDSL.mac "Repetition Position for Node 118 at Satellite" ETV
vector 76 Florasat_Individual_Sats.satellite[0].dlkDSL.mac "Repetition Generation Delay for Node 118 at Satellite" ETV
vector 77 Florasat_Individual_Sats.satellite[0].dlkDSL.mac "Message Generation Delay for Node 118 at Satellite" ETV
vector 78 Florasat_Individual_Sats.satellite[0].dlkDSL.mac "Repetition Position for Node 493 at Satellite" ETV
vector 79 Florasat_Individual_Sats.satellite[0].dlkDSL.mac "Repetition Generation Delay for Node 493 at Satellite" ETV
vector 80 Florasat_Individual_Sats.satellite[0].dlkDSL.mac "Message Generation Delay for Node 493 at Satellite" ETV
vector 81 Florasat_Individual_Sats.satellite[0].dlkDSL.mac "Repetition Position for Node 148 at Satellite" ETV
vector 82 Florasat_Individual_Sats.satellite[0].dlkDSL.mac "Repetition Generation Delay for Node 148 at Satellite" ETV
vector 83 Florasat_Individual_Sats.satellite[0].dlkDSL.mac "Message Generation Delay for Node 148 at Satellite" ETV
0	18632 3535 159 4462 8.6323445428 510.63884994009 133 180 180 23940 4309200
1	22167 74 159 3058 8.6323445428 252.9087910217 3 180 180 540 97200
2	22241 5092 159 4462 8.6323445428 510.63884994009 133 7.6323445428 509.63884994009 29593.220778266 8222107.3101957
3	27333 105 159 3058 8.6323445428 252.9087910217 3 7.6323445428 251.9087910217 345.87589245507 70969.981924588
4	27438 977 159 3282 8.6323445428 277.21623708125 26 7.6323445428 276.21623708125 3362.8890506254 595037.20912878
5	28415 32 159 159 8.6323445428 8.6323445428 1 7.6323445428 7.6323445428 7.6323445428 58.252683220009
6	28447 3427 160 4463 8.6323445428 510.63884994009 133 1 133 8911 793079
7	31874 3427 160 4463 8.6323445428 510.63884994009 133 1 133 8911 793079
8	35301 3427 160 4463 8.6323445428 510.63884994009 133 1 133 8911 793079
9	38728 238 199 3221 16.28533629295 267.46709634959 9 180 180 1620 291600
10	38966 352 199 3221 16.28533629295 267.46709634959 9 15.28533629295 266.46709634959 1451.5218596275 296499.38419022
11	39318 37 199 199 16.28533629295 16.28533629295 1 15.28533629295 15.28533629295 15.28533629295 233.64150558857
12	39355 132 233 1578 22.3598713938 137.46236596935 5 180 180 900 162000
13	39487 187 233 1578 22.3598713938 137.46236596935 5 21.3598713938 136.46236596935 346.9258620417 32879.675460536
14	39674 35 233 233 22.3598713938 22.3598713938 1 21.3598713938 21.3598713938 21.3598713938 456.24410595968
15	39709 302 343 2689 30.00151245034 225.47076872427 11 180 180 1980 356400
16	40011 430 343 2689 30.00151245034 225.47076872427 11 29.00151245034 224.47076872427 1591.2523093158 265726.48744816
17	40441 37 343 343 30.00151245034 30.00151245034 1 29.00151245034 29.00151245034 29.00151245034 841.08772440723
18	40478 193 368 4103 33.25909624671 426.59952068449 7 180 180 1260 226800
19	40671 275 368 4103 33.25909624671 426.59952068449 7 32.25909624671 425.59952068449 2180.6890143645 797213.2847133
20	40946 37 368 368 33.25909624671 33.25909624671 1 32.25909624671 32.25909624671 32.25909624671 1040.6492906545
21	40983 353 403 3127 37.26692231781 257.82252727486 13 180 180 2340 421200
22	41336 502 403 3127 37.26692231781 257.82252727486 13 36.26692231781 256.82252727486 1764.5601442317 298083.52159308
23	41838 37 403 403 37.26692231781 37.26692231781 1 36.26692231781 36.26692231781 36.26692231781 1315.2896544061
24	41875 80 676 2946 55.87655633552 250.5758888191 3 180 180 540 97200
25	41955 113 676 2946 55.87655633552 250.5758888191 3 54.87655633552 249.5758888191 467.42914634512 91860.965846027
26	42068 37 676 676 55.87655633552 55.87655633552 1 54.87655633552 54.87655633552 54.87655633552 3011.4364352455
27	42105 53 816 1046 70.28254248997 94.79953732089 2 180 180 360 64800
28	42158 75 816 1046 70.28254248997 94.79953732089 2 69.28254248997 93.79953732089 163.08207981086 13598.423895488
29	42233 37 816 816 70.28254248997 70.28254248997 1 69.28254248997 69.28254248997 69.28254248997 4800.0706938745
30	42270 194 968 4092 86.13645679377 424.39253125516 7 180 180 1260 226800
31	42464 277 968 4092 86.13645679377 424.39253125516 7 85.13645679377 423.39253125516 2038.6347718155 691406.8830213
32	42741 37 968 968 86.13645679377 86.13645679377 1 85.13645679377 85.13645679377 85.13645679377 7248.2162753975
33	42778 280 1223 3852 104.60030521493 373.40143490808 10 180 180 1800 324000
34	43058 400 1223 3852 104.60030521493 373.40143490808 10 103.60030521493 372.40143490808 2679.2284413408 797790.56259436
35	43458 40 1223 1223 104.60030521493 104.60030521493 1 103.60030521493 103.60030521493 103.60030521493 10733.023240627
36	43498 251 1234 3526 105.29325633187 308.89350446633 9 180 180 1620 291600
37	43749 358 1234 3526 105.29325633187 308.89350446633 9 104.29325633187 307.89350446633 2115.3091521954 527224.59740584
38	44107 40 1234 1234 105.29325633187 105.29325633187 1 104.29325633187 104.29325633187 104.29325633187 10877.083316305
39	44147 167 1387 3884 118.98447982598 382.72100704818 6 180 180 1080 194400
40	44314 238 1387 3884 118.98447982598 382.72100704818 6 117.98447982598 381.72100704818 1756.8580394689 567060.54549802
41	44552 40 1387 1387 118.98447982598 118.98447982598 1 117.98447982598 117.98447982598 117.98447982598 13920.337479807
42	44592 168 1624 3229 141.87616750891 268.46986086168 6 180 180 1080 194400
43	44760 240 1624 3229 141.87616750891 268.46986086168 6 140.87616750891 267.46986086168 1217.629696204 259400.06862714
44	45000 40 1624 1624 141.87616750891 141.87616750891 1 140.87616750891 140.87616750891 140.87616750891 19846.094571998
45	45040 28 1648 1648 144.88691284534 144.88691284534 1 180 180 180 32400
46	45068 40 1648 1648 144.88691284534 144.88691284534 1 143.88691284534 143.88691284534 143.88691284534 20703.443688162
47	45108 40 1648 1648 144.88691284534 144.88691284534 1 143.88691284534 143.88691284534 143.88691284534 20703.443688162
48	45148 84 1695 3268 149.39909063805 275.57471058275 3 180 180 540 97200
49	45232 120 1695 3268 149.39909063805 275.57471058275 3 148.39909063805 274.57471058275 674.23706121154 160546.78761498
50	45352 40 1695 1695 149.39909063805 149.39909063805 1 148.39909063805 148.39909063805 148.39909063805 22022.2901022
51	45392 140 1840 3775 154.29452181192 353.14119696364 5 180 180 900 162000
52	45532 200 1840 3775 154.29452181192 353.14119696364 5 153.29452181192 352.14119696364 1218.2148705296 317803.05229632
53	45732 40 1840 1840 154.29452181192 154.29452181192 1 153.29452181192 153.29452181192 153.29452181192 23499.210417545
54	45772 56 1856 3311 155.36340432068 279.23582152639 2 180 180 360 64800
55	45828 80 1856 3311 155.36340432068 279.23582152639 2 154.36340432068 278.23582152639 432.59922584707 101243.23297393
56	45908 40 1856 1856 155.36340432068 155.36340432068 1 154.36340432068 154.36340432068 154.36340432068 23828.06059347
57	45948 167 1931 3335 160.6432714662 283.23660869845 6 180 180 1080 194400
58	46115 238 1931 3335 160.6432714662 283.23660869845 6 159.6432714662 282.23660869845 1349.5641897695 314464.31750514
59	46353 38 1931 1931 160.6432714662 160.6432714662 1 159.6432714662 159.6432714662 159.6432714662 25485.974124431
60	46391 56 2213 2705 190.43296151506 226.61298644906 2 180 180 360 64800
61	46447 80 2213 2705 190.43296151506 226.61298644906 2 189.43296151506 225.61298644906 415.04594796412 86786.06656283
62	46527 40 2213 2213 190.43296151506 190.43296151506 1 189.43296151506 189.43296151506 189.43296151506 35884.846908366
63	46567 277 2262 4462 194.98180860763 510.63884994009 10 180 180 1800 324000
64	46844 394 2262 4462 194.98180860763 510.63884994009 10 193.98180860763 509.63884994009 3663.892281198 1495601.8398631
65	47238 40 2262 2262 194.98180860763 194.98180860763 1 193.98180860763 193.98180860763 193.98180860763 37628.942070687
66	47278 28 2285 2285 197.12254588783 197.12254588783 1 180 180 180 32400
67	47306 40 2285 2285 197.12254588783 197.12254588783 1 196.12254588783 196.12254588783 196.12254588783 38464.053005524
68	47346 40 2285 2285 197.12254588783 197.12254588783 1 196.12254588783 196.12254588783 196.12254588783 38464.053005524
69	47386 56 2550 3388 212.25369412782 290.96468098791 2 180 180 360 64800
70	47442 80 2550 3388 212.25369412782 290.96468098791 2 211.25369412782 289.96468098791 501.21837511573 128707.63950307
71	47522 40 2550 2550 212.25369412782 212.25369412782 1 211.25369412782 211.25369412782 211.25369412782 44628.123282651
72	47562 139 2744 3813 230.0411026655 362.90040401024 5 180 180 900 162000
73	47701 198 2744 3813 230.0411026655 362.90040401024 5 229.0411026655 361.90040401024 1573.2668661281 505793.09396258
74	47899 38 2744 2744 230.0411026655 230.0411026655 1 229.0411026655 229.0411026655 229.0411026655 52459.826710228
75	47937 84 2909 3307 245.49761616268 279.19206049751 3 180 180 540 97200
76	48021 120 2909 3307 245.49761616268 279.19206049751 3 244.49761616268 278.19206049751 785.05881972052 206007.4740633
77	48141 40 2909 2909 245.49761616268 245.49761616268 1 244.49761616268 244.49761616268 244.49761616268 59779.084309233
78	48181 28 2913 2913 245.90103575009 245.90103575009 1 180 180 180 32400
79	48209 40 2913 2913 245.90103575009 245.90103575009 1 244.90103575009 244.90103575009 244.90103575009 59976.517311467
80	48249 40 2913 2913 245.90103575009 245.90103575009 1 244.90103575009 244.90103575009 244.90103575009 59976.517311467
81	48289 28 3282 3282 277.21623708125 277.21623708125 1 180 180 180 32400
82	48317 40 3282 3282 277.21623708125 277.21623708125 1 276.21623708125 276.21623708125 276.21623708125 76295.409627325
83	48357 40 3282 3282 277.21623708125 277.21623708125 1 276.21623708125 276.21623708125 276.21623708125 76295.409627325

