version 3
run General-9-20260527-01:33:23-720927
attr configname General
attr datetime 20260527-01:33:23
attr datetimef 20260527-013323
attr experiment General
attr inifile Test_MLModel_1.ini
attr iterationvars $0=92115
attr iterationvarsd 92115
attr iterationvarsf 92115-
attr measurement $0=92115
attr network Florasat.Test_Individual.Florasat_Individual_Sats
attr processid 720927
attr repetition 9
attr replication #9
attr resultdir results
attr runnumber 9
attr seedset 9
config *.satellite[0].NoradModule.raan 185
config *.stats_altitude 670
config *.stats_raan 185
config image-path ../../images:../../../../samples/inet4.5_2/images
config network Florasat.Test_Individual.Florasat_Individual_Sats
config rng-class cMersenneTwister
config *.**.result-recording-modes -
config **.result-recording-modes -
config **.statistic-recording true
config **.scalar-recording true
config **.vector-recording true
config **.vector-record-eventnumbers true
config repeat 10
config seed-0-mt 92115
config sim-time-limit 749s
config simtime-resolution -11
config **.stats_altitude 670
config **.stats_raan 185
config *.radioMedium.backgroundNoise.power -110dBm
config *.radioMedium.mediumLimitCache.centerFrequency 868MHz
config *.radioMedium.mediumLimitCache.maxTransmissionDuration 4s
config *.radioMedium.mediumLimitCache.minInterferenceTime 0s
config **.numSatellites 1
config *.satellite[*].mobilityType "\"Sat_Mob_SatelliteMobility_Standalone\""
config *.satellite[*].noradModuleType "\"Sat_Mob_NoradA\""
config **.satellite[*].**.initFromDisplayString false
config *.satellite[*].mobility.faceForward true
config *.satellite[*].mobility.updateInterval 20s
config *.satellite[*].NoradModule.satName "\"FLoRaSat\""
config *.satellite[*].NoradModule.satIndex -1
config *.satellite[*].NoradModule.baseYear 20
config *.satellite[*].NoradModule.baseDay 1.5
config *.satellite[*].NoradModule.planes 1
config *.satellite[*].NoradModule.satPerPlane 1
config *.satellite[*].NoradModule.eccentricity 0.000001
config *.satellite[*].NoradModule.inclination 98
config *.satellite[*].NoradModule.altitude 670
config *.satellite[0].NoradModule.raan 185
config *.satellite[0].NoradModule.meanAnomaly 195
config *.satellite[*].phyDSL.radio.receiver.enableCollisionOverlap true
config *.satellite[*].phyDSL.radio.receiver.minCollisionOverlap 0s
config *.satellite[*].phyDSL.radio.antenna.typename ConstantGainAntenna
config *.satellite[*].phyDSL.radio.antenna.mobilityModule "\"^.^.^.mobility\""
config *.satellite[*].phyISL.radio.antenna.mobilityModule "\"^.^.^.mobility\""
config *.satellite[*].phyGSL.radio.antenna.mobilityModule "\"^.^.^.mobility\""
config *.satellite[*].phyDSL.radio.antenna.gain 12dB
config *.satellite[*].net.routingType "\"Null_Routing\""
config *.terminal[*].net.routingType "\"Ter_Null_Routing\""
config *.**.numGroundLinks 40
config *.satellite[*].**.interfaceTableModule "\"\""
config **.radioMedium.typename LoRaMedium
config **.radioMedium.analogModel.typename LoRaAnalogModel
config **.intraPlaneIslDisabled false
config **.interPlaneIslDisabled false
config **.numTerminals 30
config *.terminal[*].phy.radio.antenna.mobilityModule "\"^.^.^.mob\""
config *.terminal[*].dlk.mac.interfaceTableModule "\"\""
config *.terminal[*].dlk.energySourceModule "\"\""
config *.terminal[*].dlk.mac.LoRaTP "intuniform(12, 14)"
config *.terminal[*].dlk.mac.LoRaSF "intuniform(10, 12)"
config *.terminal[*].dlk.mac.useMLBox true
config *.terminal[*].dlk.mac.mlBox.modelPath "\"/home/ylnner/Documents/omnet++/omnetpp-6.3.0/projects/florasat_v4_ult_routing/simulations/Test_Individual/mlmodels/transformer_scripted.pt\""
config **.numberOfPacketsToSend 0
config **.timeToFirstPacket 1s
config **.timeToNextPacket 50s
config *.terminal[0].mob.radius 0.0
config *.terminal[0].mob.centerLatitude 54.978
config *.terminal[0].mob.centerLongitude -1.617
config *.terminal[1].mob.radius 0.0
config *.terminal[1].mob.centerLatitude 52.630
config *.terminal[1].mob.centerLongitude -1.139
config *.terminal[2].mob.radius 0.0
config *.terminal[2].mob.centerLatitude 52.612
config *.terminal[2].mob.centerLongitude -6.295
config *.terminal[3].mob.radius 0.0
config *.terminal[3].mob.centerLatitude 47.243
config *.terminal[3].mob.centerLongitude 6.024
config *.terminal[4].mob.radius 0.0
config *.terminal[4].mob.centerLatitude 43.610
config *.terminal[4].mob.centerLongitude 3.876
config *.terminal[5].mob.radius 0.0
config *.terminal[5].mob.centerLatitude 49.443
config *.terminal[5].mob.centerLongitude 1.099
config *.terminal[6].mob.radius 0.0
config *.terminal[6].mob.centerLatitude 37.992
config *.terminal[6].mob.centerLongitude -1.130
config *.terminal[7].mob.radius 0.0
config *.terminal[7].mob.centerLatitude 40.965
config *.terminal[7].mob.centerLongitude -5.664
config *.terminal[8].mob.radius 0.0
config *.terminal[8].mob.centerLatitude 40.657
config *.terminal[8].mob.centerLongitude -7.914
config *.terminal[9].mob.radius 0.0
config *.terminal[9].mob.centerLatitude 51.340
config *.terminal[9].mob.centerLongitude 12.373
config *.terminal[10].mob.radius 0.0
config *.terminal[10].mob.centerLatitude 51.455
config *.terminal[10].mob.centerLongitude 7.011
config *.terminal[11].mob.radius 0.0
config *.terminal[11].mob.centerLatitude 49.452
config *.terminal[11].mob.centerLongitude 11.076
config *.terminal[12].mob.radius 0.0
config *.terminal[12].mob.centerLatitude 43.769
config *.terminal[12].mob.centerLongitude 11.255
config *.terminal[13].mob.radius 0.0
config *.terminal[13].mob.centerLatitude 41.117
config *.terminal[13].mob.centerLongitude 16.871
config *.terminal[14].mob.radius 0.0
config *.terminal[14].mob.centerLatitude 52.132
config *.terminal[14].mob.centerLongitude 5.291
config *.terminal[15].mob.radius 0.0
config *.terminal[15].mob.centerLatitude 50.411
config *.terminal[15].mob.centerLongitude 4.444
config *.terminal[16].mob.radius 0.0
config *.terminal[16].mob.centerLatitude 47.559
config *.terminal[16].mob.centerLongitude 7.588
config *.terminal[17].mob.radius 0.0
config *.terminal[17].mob.centerLatitude 55.403
config *.terminal[17].mob.centerLongitude 10.402
config *.terminal[18].mob.radius 0.0
config *.terminal[18].mob.centerLatitude 59.858
config *.terminal[18].mob.centerLongitude 17.638
config *.terminal[19].mob.radius 0.0
config *.terminal[19].mob.centerLatitude 60.451
config *.terminal[19].mob.centerLongitude 22.266
config *.terminal[20].mob.radius 0.0
config *.terminal[20].mob.centerLatitude 56.325
config *.terminal[20].mob.centerLongitude 22.349
config *.terminal[21].mob.radius 0.0
config *.terminal[21].mob.centerLatitude 49.883
config *.terminal[21].mob.centerLongitude 18.568
config *.terminal[22].mob.radius 0.0
config *.terminal[22].mob.centerLatitude 47.531
config *.terminal[22].mob.centerLongitude 21.627
config *.terminal[23].mob.radius 0.0
config *.terminal[23].mob.centerLatitude 44.179
config *.terminal[23].mob.centerLongitude 28.649
config *.terminal[24].mob.radius 0.0
config *.terminal[24].mob.centerLatitude 45.327
config *.terminal[24].mob.centerLongitude 14.442
config *.terminal[25].mob.radius 0.0
config *.terminal[25].mob.centerLatitude 40.694
config *.terminal[25].mob.centerLongitude 30.400
config *.terminal[26].mob.radius 0.0
config *.terminal[26].mob.centerLatitude 37.066
config *.terminal[26].mob.centerLongitude 37.383
config *.terminal[27].mob.radius 0.0
config *.terminal[27].mob.centerLatitude 64.836
config *.terminal[27].mob.centerLongitude -23.708
config *.terminal[28].mob.radius 0.0
config *.terminal[28].mob.centerLatitude 28.099
config *.terminal[28].mob.centerLongitude -17.113
config *.terminal[29].mob.radius 0.0
config *.terminal[29].mob.centerLatitude 34.921
config *.terminal[29].mob.centerLongitude 33.623
config **.numStations 3
config **.numStations 3
config *.station[0].mobility.latitude 55.752
config *.station[0].mobility.longitude 37.616
config *.station[0].cityName "\"Moscow\""
config *.station[0].groundStationId 7
config *.station[0].routerAddr "\"10.0.0.29\""
config *.station[0].serving "\"10.0.0.29\""
config *.station[1].mobility.latitude 28.652
config *.station[1].mobility.longitude 77.231
config *.station[1].cityName "\"Delhi\""
config *.station[1].groundStationId 11
config *.station[1].routerAddr "\"10.0.0.45\""
config *.station[1].serving "\"10.0.0.45\""
config *.station[2].mobility.latitude 25.35
config *.station[2].mobility.longitude 51.24
config *.station[2].cityName "\"Katar\""
config *.station[2].groundStationId 19
config *.station[2].routerAddr "\"10.0.0.77\""
config *.station[2].serving "\"10.0.0.77\""
config *.visualizer.canvasVisualizer.mediumVisualizer.typename ""
config *.visualizer.*.radioVisualizer.displayAntennaLobes true
config *.visualizer.*.dataLinkVisualizer.displayLinks true
config *.visualizer.*.mobilityVisualizer.displayMovementTrails true
config *.visualizer.*.mobilityVisualizer.movementTrailLineWidth 1
config *.visualizer.*.mobilityVisualizer.trailLength 3000
config **.ttxStart_max 30s
config **.ttxIdle_min 10s
config **.ttxIdle_max 25s
config **.Ntw 2
config **.Ntx 45
config **.ttwDuration 550s

vector 0 Florasat_Individual_Sats.satellite[0].dlkDSL.mac "Satellite Position when Repetition Received" ETV
vector 1 Florasat_Individual_Sats.satellite[0].dlkDSL.mac "Repetition Position for Node 58 at Satellite" ETV
vector 2 Florasat_Individual_Sats.satellite[0].dlkDSL.mac "All Nodes Repetition Generation Delay at Satellite" ETV
vector 3 Florasat_Individual_Sats.satellite[0].dlkDSL.mac "Repetition Generation Delay for Node 58 at Satellite" ETV
vector 4 Florasat_Individual_Sats.satellite[0].dlkDSL.mac "All Nodes Message Generation Delay at Satellite" ETV
vector 5 Florasat_Individual_Sats.satellite[0].dlkDSL.mac "Message Generation Delay for Node 58 at Satellite" ETV
vector 6 Florasat_Individual_Sats.satellite[0].net.packetHandler "packets received" ETV
vector 7 Florasat_Individual_Sats.satellite[0].net.packetHandler "dropped unroutable" ETV
vector 8 Florasat_Individual_Sats.satellite[0].net.packetHandler "packets dropped" ETV
vector 9 Florasat_Individual_Sats.satellite[0].dlkDSL.mac "Repetition Position for Node 358 at Satellite" ETV
vector 10 Florasat_Individual_Sats.satellite[0].dlkDSL.mac "Repetition Generation Delay for Node 358 at Satellite" ETV
vector 11 Florasat_Individual_Sats.satellite[0].dlkDSL.mac "Message Generation Delay for Node 358 at Satellite" ETV
vector 12 Florasat_Individual_Sats.satellite[0].dlkDSL.mac "Repetition Position for Node 463 at Satellite" ETV
vector 13 Florasat_Individual_Sats.satellite[0].dlkDSL.mac "Repetition Generation Delay for Node 463 at Satellite" ETV
vector 14 Florasat_Individual_Sats.satellite[0].dlkDSL.mac "Message Generation Delay for Node 463 at Satellite" ETV
vector 15 Florasat_Individual_Sats.satellite[0].dlkDSL.mac "Repetition Position for Node 328 at Satellite" ETV
vector 16 Florasat_Individual_Sats.satellite[0].dlkDSL.mac "Repetition Generation Delay for Node 328 at Satellite" ETV
vector 17 Florasat_Individual_Sats.satellite[0].dlkDSL.mac "Message Generation Delay for Node 328 at Satellite" ETV
vector 18 Florasat_Individual_Sats.satellite[0].dlkDSL.mac "Repetition Position for Node 418 at Satellite" ETV
vector 19 Florasat_Individual_Sats.satellite[0].dlkDSL.mac "Repetition Generation Delay for Node 418 at Satellite" ETV
vector 20 Florasat_Individual_Sats.satellite[0].dlkDSL.mac "Message Generation Delay for Node 418 at Satellite" ETV
vector 21 Florasat_Individual_Sats.satellite[0].dlkDSL.mac "Repetition Position for Node 343 at Satellite" ETV
vector 22 Florasat_Individual_Sats.satellite[0].dlkDSL.mac "Repetition Generation Delay for Node 343 at Satellite" ETV
vector 23 Florasat_Individual_Sats.satellite[0].dlkDSL.mac "Message Generation Delay for Node 343 at Satellite" ETV
vector 24 Florasat_Individual_Sats.satellite[0].dlkDSL.mac "Repetition Position for Node 73 at Satellite" ETV
vector 25 Florasat_Individual_Sats.satellite[0].dlkDSL.mac "Repetition Generation Delay for Node 73 at Satellite" ETV
vector 26 Florasat_Individual_Sats.satellite[0].dlkDSL.mac "Message Generation Delay for Node 73 at Satellite" ETV
vector 27 Florasat_Individual_Sats.satellite[0].dlkDSL.mac "Repetition Position for Node 133 at Satellite" ETV
vector 28 Florasat_Individual_Sats.satellite[0].dlkDSL.mac "Repetition Generation Delay for Node 133 at Satellite" ETV
vector 29 Florasat_Individual_Sats.satellite[0].dlkDSL.mac "Message Generation Delay for Node 133 at Satellite" ETV
vector 30 Florasat_Individual_Sats.satellite[0].dlkDSL.mac "Repetition Position for Node 298 at Satellite" ETV
vector 31 Florasat_Individual_Sats.satellite[0].dlkDSL.mac "Repetition Generation Delay for Node 298 at Satellite" ETV
vector 32 Florasat_Individual_Sats.satellite[0].dlkDSL.mac "Message Generation Delay for Node 298 at Satellite" ETV
vector 33 Florasat_Individual_Sats.satellite[0].dlkDSL.mac "Repetition Position for Node 193 at Satellite" ETV
vector 34 Florasat_Individual_Sats.satellite[0].dlkDSL.mac "Repetition Generation Delay for Node 193 at Satellite" ETV
vector 35 Florasat_Individual_Sats.satellite[0].dlkDSL.mac "Message Generation Delay for Node 193 at Satellite" ETV
vector 36 Florasat_Individual_Sats.satellite[0].dlkDSL.mac "Repetition Position for Node 313 at Satellite" ETV
vector 37 Florasat_Individual_Sats.satellite[0].dlkDSL.mac "Repetition Generation Delay for Node 313 at Satellite" ETV
vector 38 Florasat_Individual_Sats.satellite[0].dlkDSL.mac "Message Generation Delay for Node 313 at Satellite" ETV
vector 39 Florasat_Individual_Sats.satellite[0].dlkDSL.mac "Repetition Position for Node 223 at Satellite" ETV
vector 40 Florasat_Individual_Sats.satellite[0].dlkDSL.mac "Repetition Generation Delay for Node 223 at Satellite" ETV
vector 41 Florasat_Individual_Sats.satellite[0].dlkDSL.mac "Message Generation Delay for Node 223 at Satellite" ETV
vector 42 Florasat_Individual_Sats.satellite[0].dlkDSL.mac "Repetition Position for Node 283 at Satellite" ETV
vector 43 Florasat_Individual_Sats.satellite[0].dlkDSL.mac "Repetition Generation Delay for Node 283 at Satellite" ETV
vector 44 Florasat_Individual_Sats.satellite[0].dlkDSL.mac "Message Generation Delay for Node 283 at Satellite" ETV
vector 45 Florasat_Individual_Sats.satellite[0].dlkDSL.mac "Repetition Position for Node 268 at Satellite" ETV
vector 46 Florasat_Individual_Sats.satellite[0].dlkDSL.mac "Repetition Generation Delay for Node 268 at Satellite" ETV
vector 47 Florasat_Individual_Sats.satellite[0].dlkDSL.mac "Message Generation Delay for Node 268 at Satellite" ETV
vector 48 Florasat_Individual_Sats.satellite[0].dlkDSL.mac "Repetition Position for Node 253 at Satellite" ETV
vector 49 Florasat_Individual_Sats.satellite[0].dlkDSL.mac "Repetition Generation Delay for Node 253 at Satellite" ETV
vector 50 Florasat_Individual_Sats.satellite[0].dlkDSL.mac "Message Generation Delay for Node 253 at Satellite" ETV
vector 51 Florasat_Individual_Sats.satellite[0].dlkDSL.mac "Repetition Position for Node 208 at Satellite" ETV
vector 52 Florasat_Individual_Sats.satellite[0].dlkDSL.mac "Repetition Generation Delay for Node 208 at Satellite" ETV
vector 53 Florasat_Individual_Sats.satellite[0].dlkDSL.mac "Message Generation Delay for Node 208 at Satellite" ETV
vector 54 Florasat_Individual_Sats.satellite[0].dlkDSL.mac "Repetition Position for Node 388 at Satellite" ETV
vector 55 Florasat_Individual_Sats.satellite[0].dlkDSL.mac "Repetition Generation Delay for Node 388 at Satellite" ETV
vector 56 Florasat_Individual_Sats.satellite[0].dlkDSL.mac "Message Generation Delay for Node 388 at Satellite" ETV
vector 57 Florasat_Individual_Sats.satellite[0].dlkDSL.mac "Repetition Position for Node 403 at Satellite" ETV
vector 58 Florasat_Individual_Sats.satellite[0].dlkDSL.mac "Repetition Generation Delay for Node 403 at Satellite" ETV
vector 59 Florasat_Individual_Sats.satellite[0].dlkDSL.mac "Message Generation Delay for Node 403 at Satellite" ETV
vector 60 Florasat_Individual_Sats.satellite[0].dlkDSL.mac "Repetition Position for Node 178 at Satellite" ETV
vector 61 Florasat_Individual_Sats.satellite[0].dlkDSL.mac "Repetition Generation Delay for Node 178 at Satellite" ETV
vector 62 Florasat_Individual_Sats.satellite[0].dlkDSL.mac "Message Generation Delay for Node 178 at Satellite" ETV
vector 63 Florasat_Individual_Sats.satellite[0].dlkDSL.mac "Repetition Position for Node 238 at Satellite" ETV
vector 64 Florasat_Individual_Sats.satellite[0].dlkDSL.mac "Repetition Generation Delay for Node 238 at Satellite" ETV
vector 65 Florasat_Individual_Sats.satellite[0].dlkDSL.mac "Message Generation Delay for Node 238 at Satellite" ETV
vector 66 Florasat_Individual_Sats.satellite[0].dlkDSL.mac "Repetition Position for Node 448 at Satellite" ETV
vector 67 Florasat_Individual_Sats.satellite[0].dlkDSL.mac "Repetition Generation Delay for Node 448 at Satellite" ETV
vector 68 Florasat_Individual_Sats.satellite[0].dlkDSL.mac "Message Generation Delay for Node 448 at Satellite" ETV
vector 69 Florasat_Individual_Sats.satellite[0].dlkDSL.mac "Repetition Position for Node 88 at Satellite" ETV
vector 70 Florasat_Individual_Sats.satellite[0].dlkDSL.mac "Repetition Generation Delay for Node 88 at Satellite" ETV
vector 71 Florasat_Individual_Sats.satellite[0].dlkDSL.mac "Message Generation Delay for Node 88 at Satellite" ETV
vector 72 Florasat_Individual_Sats.satellite[0].dlkDSL.mac "Repetition Position for Node 373 at Satellite" ETV
vector 73 Florasat_Individual_Sats.satellite[0].dlkDSL.mac "Repetition Generation Delay for Node 373 at Satellite" ETV
vector 74 Florasat_Individual_Sats.satellite[0].dlkDSL.mac "Message Generation Delay for Node 373 at Satellite" ETV
vector 75 Florasat_Individual_Sats.satellite[0].dlkDSL.mac "Repetition Position for Node 118 at Satellite" ETV
vector 76 Florasat_Individual_Sats.satellite[0].dlkDSL.mac "Repetition Generation Delay for Node 118 at Satellite" ETV
vector 77 Florasat_Individual_Sats.satellite[0].dlkDSL.mac "Message Generation Delay for Node 118 at Satellite" ETV
vector 78 Florasat_Individual_Sats.satellite[0].dlkDSL.mac "Repetition Position for Node 493 at Satellite" ETV
vector 79 Florasat_Individual_Sats.satellite[0].dlkDSL.mac "Repetition Generation Delay for Node 493 at Satellite" ETV
vector 80 Florasat_Individual_Sats.satellite[0].dlkDSL.mac "Message Generation Delay for Node 493 at Satellite" ETV
vector 81 Florasat_Individual_Sats.satellite[0].dlkDSL.mac "Repetition Position for Node 148 at Satellite" ETV
vector 82 Florasat_Individual_Sats.satellite[0].dlkDSL.mac "Repetition Generation Delay for Node 148 at Satellite" ETV
vector 83 Florasat_Individual_Sats.satellite[0].dlkDSL.mac "Message Generation Delay for Node 148 at Satellite" ETV
0	159	8.6323445428	180
0	199	16.28533629295	180
0	233	22.3598713938	180
0	343	30.00151245034	180
0	368	33.25909624671	180
0	377	34.43523603668	180
0	391	36.37514593409	180
0	403	37.26692231781	180
0	668	55.01670545958	180
0	676	55.87655633552	180
0	693	58.70920752388	180
0	792	66.50965991257	180
0	816	70.28254248997	180
0	876	77.2477105848	180
0	961	85.64580000116	180
0	968	86.13645679377	180
0	973	87.33475689057	180
0	1046	94.79953732089	180
0	1064	96.30128795574	180
0	1074	96.77779735991	180
0	1082	97.01927122058	180
0	1223	104.60030521493	180
0	1234	105.29325633187	180
0	1352	116.27121742176	180
0	1387	118.98447982598	180
0	1395	119.34250936721	180
0	1512	129.83970819916	180
0	1516	130.10098031832	180
0	1560	135.37147660218	180
0	1578	137.46236596935	180
0	1624	141.87616750891	180
0	1648	144.88691284534	180
0	1670	147.6375164866	180
0	1680	148.46984147503	180
0	1695	149.39909063805	180
0	1709	150.30538923682	180
0	1840	154.29452181192	180
0	1852	154.69399936025	180
0	1856	155.36340432068	180
0	1931	160.6432714662	180
0	1953	163.06382210287	180
0	1957	163.9767011905	180
0	1990	168.76401065144	180
0	2010	169.61793524622	180
0	2111	180.73016605633	180
0	2126	181.98667369545	180
0	2174	185.6326182023	180
0	2178	185.89140555184	180
0	2209	190.28753701591	180
0	2213	190.43296151506	180
0	2227	192.10437634787	180
0	2254	194.39970667999	180
0	2262	194.98180860763	180
0	2275	195.98582103027	180
0	2285	197.12254588783	180
0	2307	198.30313080914	180
0	2454	205.52959343012	180
0	2464	205.9561951353	180
0	2495	208.80776667912	180
0	2515	209.83649185037	180
0	2550	212.25369412782	180
0	2574	214.80587414227	180
0	2592	217.90132960634	180
0	2609	219.99530328197	180
0	2624	221.73452067299	180
0	2629	221.97230895146	180
0	2636	222.20015615402	180
0	2656	223.2673282741	180
0	2664	223.8167411378	180
0	2685	225.44612326952	180
0	2689	225.47076872427	180
0	2701	226.29512130743	180
0	2705	226.61298644906	180
0	2744	230.0411026655	180
0	2763	233.7838182167	180
0	2792	236.55292613528	180
0	2863	242.42586947456	180
0	2889	244.04355640467	180
0	2900	244.47175087751	180
0	2909	245.49761616268	180
0	2913	245.90103575009	180
0	2930	247.44316882048	180
0	2935	247.63336488738	180
0	2946	250.5758888191	180
0	3054	252.26325999074	180
0	3058	252.9087910217	180
0	3107	256.65205160266	180
0	3123	257.63432275381	180
0	3127	257.82252727486	180
0	3139	258.93076372444	180
0	3162	261.32489601246	180
0	3197	263.36914306033	180
0	3221	267.46709634959	180
0	3229	268.46986086168	180
0	3268	275.57471058275	180
0	3278	276.14818200346	180
0	3282	277.21623708125	180
0	3307	279.19206049751	180
0	3311	279.23582152639	180
0	3335	283.23660869845	180
0	3350	284.95122177004	180
0	3383	289.82929237762	180
0	3388	290.96468098791	180
0	3399	293.76065732205	180
0	3526	308.89350446633	180
0	3531	310.04305076067	180
0	3545	314.11852836834	180
0	3570	322.43735342033	180
0	3584	326.31889895761	180
0	3589	327.66057301293	180
0	3631	338.38389234365	180
0	3648	344.26016620689	180
0	3662	347.40256788783	180
0	3666	347.62173567879	180
0	3775	353.14119696364	180
0	3802	361.02222535402	180
0	3813	362.90040401024	180
0	3839	370.63829182976	180
0	3852	373.40143490808	180
0	3861	374.39689929694	180
0	3884	382.72100704818	180
0	3910	391.3356643692	180
0	3926	398.54470197055	180
0	4029	401.74163247206	180
0	4060	412.06231485763	180
0	4074	418.04374641617	180
0	4092	424.39253125516	180
0	4103	426.59952068449	180
0	4134	442.40099302371	180
0	4255	455.20590390888	180
0	4293	473.1327261065	180
0	4336	495.1454857841	180
0	4462	510.63884994009	180
1	159	8.6323445428	180
1	973	87.33475689057	180
1	3058	252.9087910217	180
2	159	8.6323445428	7.6323445428
2	199	16.28533629295	15.28533629295
2	233	22.3598713938	21.3598713938
2	343	30.00151245034	29.00151245034
2	368	33.25909624671	32.25909624671
2	377	34.43523603668	33.43523603668
2	391	36.37514593409	35.37514593409
2	403	37.26692231781	36.26692231781
2	668	55.01670545958	54.01670545958
2	676	55.87655633552	54.87655633552
2	693	58.70920752388	57.70920752388
2	792	66.50965991257	65.50965991257
2	816	70.28254248997	69.28254248997
2	876	77.2477105848	76.2477105848
2	961	85.64580000116	84.64580000116
2	968	86.13645679377	85.13645679377
2	973	87.33475689057	86.33475689057
2	1046	94.79953732089	93.79953732089
2	1064	96.30128795574	95.30128795574
2	1074	96.77779735991	95.77779735991
2	1082	97.01927122058	96.01927122058
2	1223	104.60030521493	103.60030521493
2	1234	105.29325633187	104.29325633187
2	1352	116.27121742176	115.27121742176
2	1387	118.98447982598	117.98447982598
2	1395	119.34250936721	118.34250936721
2	1512	129.83970819916	128.83970819916
2	1516	130.10098031832	129.10098031832
2	1560	135.37147660218	134.37147660218
2	1578	137.46236596935	136.46236596935
2	1624	141.87616750891	140.87616750891
2	1648	144.88691284534	143.88691284534
2	1670	147.6375164866	146.6375164866
2	1680	148.46984147503	147.46984147503
2	1695	149.39909063805	148.39909063805
2	1709	150.30538923682	149.30538923682
2	1840	154.29452181192	153.29452181192
2	1852	154.69399936025	153.69399936025
2	1856	155.36340432068	154.36340432068
2	1931	160.6432714662	159.6432714662
2	1953	163.06382210287	162.06382210287
2	1957	163.9767011905	162.9767011905
2	1990	168.76401065144	167.76401065144
2	2010	169.61793524622	168.61793524622
2	2111	180.73016605633	179.73016605633
2	2126	181.98667369545	180.98667369545
2	2174	185.6326182023	184.6326182023
2	2178	185.89140555184	184.89140555184
2	2209	190.28753701591	189.28753701591
2	2213	190.43296151506	189.43296151506
2	2227	192.10437634787	191.10437634787
2	2254	194.39970667999	193.39970667999
2	2262	194.98180860763	193.98180860763
2	2275	195.98582103027	194.98582103027
2	2285	197.12254588783	196.12254588783
2	2307	198.30313080914	197.30313080914
2	2454	205.52959343012	204.52959343012
2	2464	205.9561951353	204.9561951353
2	2495	208.80776667912	207.80776667912
2	2515	209.83649185037	208.83649185037
2	2550	212.25369412782	211.25369412782
2	2574	214.80587414227	213.80587414227
2	2592	217.90132960634	216.90132960634
2	2609	219.99530328197	218.99530328197
2	2624	221.73452067299	220.73452067299
2	2629	221.97230895146	220.97230895146
2	2636	222.20015615402	221.20015615402
2	2656	223.2673282741	222.2673282741
2	2664	223.8167411378	222.8167411378
2	2685	225.44612326952	224.44612326952
2	2689	225.47076872427	224.47076872427
2	2701	226.29512130743	225.29512130743
2	2705	226.61298644906	225.61298644906
2	2744	230.0411026655	229.0411026655
2	2763	233.7838182167	232.7838182167
2	2792	236.55292613528	235.55292613528
2	2863	242.42586947456	241.42586947456
2	2889	244.04355640467	243.04355640467
2	2900	244.47175087751	243.47175087751
2	2909	245.49761616268	244.49761616268
2	2913	245.90103575009	244.90103575009
2	2930	247.44316882048	246.44316882048
2	2935	247.63336488738	246.63336488738
2	2946	250.5758888191	249.5758888191
2	3054	252.26325999074	251.26325999074
2	3058	252.9087910217	251.9087910217
2	3107	256.65205160266	255.65205160266
2	3123	257.63432275381	256.63432275381
2	3127	257.82252727486	256.82252727486
2	3139	258.93076372444	257.93076372444
2	3162	261.32489601246	260.32489601246
2	3197	263.36914306033	262.36914306033
2	3221	267.46709634959	266.46709634959
2	3229	268.46986086168	267.46986086168
2	3268	275.57471058275	274.57471058275
2	3278	276.14818200346	275.14818200346
2	3282	277.21623708125	276.21623708125
2	3307	279.19206049751	278.19206049751
2	3311	279.23582152639	278.23582152639
2	3335	283.23660869845	282.23660869845
2	3350	284.95122177004	283.95122177004
2	3383	289.82929237762	288.82929237762
2	3388	290.96468098791	289.96468098791
2	3399	293.76065732205	292.76065732205
2	3526	308.89350446633	307.89350446633
2	3531	310.04305076067	309.04305076067
2	3545	314.11852836834	313.11852836834
2	3570	322.43735342033	321.43735342033
2	3584	326.31889895761	325.31889895761
2	3589	327.66057301293	326.66057301293
2	3631	338.38389234365	337.38389234365
2	3648	344.26016620689	343.26016620689
2	3662	347.40256788783	346.40256788783
2	3666	347.62173567879	346.62173567879
2	3775	353.14119696364	352.14119696364
2	3802	361.02222535402	360.02222535402
2	3813	362.90040401024	361.90040401024
2	3839	370.63829182976	369.63829182976
2	3852	373.40143490808	372.40143490808
2	3861	374.39689929694	373.39689929694
2	3884	382.72100704818	381.72100704818
2	3910	391.3356643692	390.3356643692
2	3926	398.54470197055	397.54470197055
2	4029	401.74163247206	400.74163247206
2	4060	412.06231485763	411.06231485763
2	4074	418.04374641617	417.04374641617
2	4092	424.39253125516	423.39253125516
2	4103	426.59952068449	425.59952068449
2	4134	442.40099302371	441.40099302371
2	4255	455.20590390888	454.20590390888
2	4293	473.1327261065	472.1327261065
2	4336	495.1454857841	494.1454857841
2	4462	510.63884994009	509.63884994009
3	159	8.6323445428	7.6323445428
3	973	87.33475689057	86.33475689057
3	3058	252.9087910217	251.9087910217
4	159	8.6323445428	7.6323445428
4	199	16.28533629295	15.28533629295
4	233	22.3598713938	21.3598713938
4	343	30.00151245034	29.00151245034
4	368	33.25909624671	32.25909624671
4	403	37.26692231781	36.26692231781
4	676	55.87655633552	54.87655633552
4	816	70.28254248997	69.28254248997
4	968	86.13645679377	85.13645679377
4	1223	104.60030521493	103.60030521493
4	1234	105.29325633187	104.29325633187
4	1387	118.98447982598	117.98447982598
4	1624	141.87616750891	140.87616750891
4	1648	144.88691284534	143.88691284534
4	1695	149.39909063805	148.39909063805
4	1840	154.29452181192	153.29452181192
4	1856	155.36340432068	154.36340432068
4	1931	160.6432714662	159.6432714662
4	2213	190.43296151506	189.43296151506
4	2262	194.98180860763	193.98180860763
4	2285	197.12254588783	196.12254588783
4	2550	212.25369412782	211.25369412782
4	2744	230.0411026655	229.0411026655
4	2909	245.49761616268	244.49761616268
4	2913	245.90103575009	244.90103575009
4	3282	277.21623708125	276.21623708125
5	159	8.6323445428	7.6323445428
6	160	8.6323445428	1
6	200	16.28533629295	2
6	234	22.3598713938	3
6	344	30.00151245034	4
6	369	33.25909624671	5
6	378	34.43523603668	6
6	392	36.37514593409	7
6	404	37.26692231781	8
6	669	55.01670545958	9
6	677	55.87655633552	10
6	694	58.70920752388	11
6	793	66.50965991257	12
6	817	70.28254248997	13
6	877	77.2477105848	14
6	962	85.64580000116	15
6	969	86.13645679377	16
6	974	87.33475689057	17
6	1047	94.79953732089	18
6	1065	96.30128795574	19
6	1075	96.77779735991	20
6	1083	97.01927122058	21
6	1224	104.60030521493	22
6	1235	105.29325633187	23
6	1353	116.27121742176	24
6	1388	118.98447982598	25
6	1396	119.34250936721	26
6	1513	129.83970819916	27
6	1517	130.10098031832	28
6	1561	135.37147660218	29
6	1579	137.46236596935	30
6	1625	141.87616750891	31
6	1649	144.88691284534	32
6	1671	147.6375164866	33
6	1681	148.46984147503	34
6	1696	149.39909063805	35
6	1710	150.30538923682	36
6	1841	154.29452181192	37
6	1853	154.69399936025	38
6	1857	155.36340432068	39
6	1932	160.6432714662	40
6	1954	163.06382210287	41
6	1958	163.9767011905	42
6	1991	168.76401065144	43
6	2011	169.61793524622	44
6	2112	180.73016605633	45
6	2127	181.98667369545	46
6	2175	185.6326182023	47
6	2179	185.89140555184	48
6	2210	190.28753701591	49
6	2214	190.43296151506	50
6	2228	192.10437634787	51
6	2255	194.39970667999	52
6	2263	194.98180860763	53
6	2276	195.98582103027	54
6	2286	197.12254588783	55
6	2308	198.30313080914	56
6	2455	205.52959343012	57
6	2465	205.9561951353	58
6	2496	208.80776667912	59
6	2516	209.83649185037	60
6	2551	212.25369412782	61
6	2575	214.80587414227	62
6	2593	217.90132960634	63
6	2610	219.99530328197	64
6	2625	221.73452067299	65
6	2630	221.97230895146	66
6	2637	222.20015615402	67
6	2657	223.2673282741	68
6	2665	223.8167411378	69
6	2686	225.44612326952	70
6	2690	225.47076872427	71
6	2702	226.29512130743	72
6	2706	226.61298644906	73
6	2745	230.0411026655	74
6	2764	233.7838182167	75
6	2793	236.55292613528	76
6	2864	242.42586947456	77
6	2890	244.04355640467	78
6	2901	244.47175087751	79
6	2910	245.49761616268	80
6	2914	245.90103575009	81
6	2931	247.44316882048	82
6	2936	247.63336488738	83
6	2947	250.5758888191	84
6	3055	252.26325999074	85
6	3059	252.9087910217	86
6	3108	256.65205160266	87
6	3124	257.63432275381	88
6	3128	257.82252727486	89
6	3140	258.93076372444	90
6	3163	261.32489601246	91
6	3198	263.36914306033	92
6	3222	267.46709634959	93
6	3230	268.46986086168	94
6	3269	275.57471058275	95
6	3279	276.14818200346	96
6	3283	277.21623708125	97
6	3308	279.19206049751	98
6	3312	279.23582152639	99
6	3336	283.23660869845	100
6	3351	284.95122177004	101
6	3384	289.82929237762	102
6	3389	290.96468098791	103
6	3400	293.76065732205	104
6	3527	308.89350446633	105
6	3532	310.04305076067	106
6	3546	314.11852836834	107
6	3571	322.43735342033	108
6	3585	326.31889895761	109
6	3590	327.66057301293	110
6	3632	338.38389234365	111
6	3649	344.26016620689	112
6	3663	347.40256788783	113
6	3667	347.62173567879	114
6	3776	353.14119696364	115
6	3803	361.02222535402	116
6	3814	362.90040401024	117
6	3840	370.63829182976	118
6	3853	373.40143490808	119
6	3862	374.39689929694	120
6	3885	382.72100704818	121
6	3911	391.3356643692	122
6	3927	398.54470197055	123
6	4030	401.74163247206	124
6	4061	412.06231485763	125
6	4075	418.04374641617	126
6	4093	424.39253125516	127
6	4104	426.59952068449	128
6	4135	442.40099302371	129
6	4256	455.20590390888	130
6	4294	473.1327261065	131
6	4337	495.1454857841	132
6	4463	510.63884994009	133
7	160	8.6323445428	1
7	200	16.28533629295	2
7	234	22.3598713938	3
7	344	30.00151245034	4
7	369	33.25909624671	5
7	378	34.43523603668	6
7	392	36.37514593409	7
7	404	37.26692231781	8
7	669	55.01670545958	9
7	677	55.87655633552	10
7	694	58.70920752388	11
7	793	66.50965991257	12
7	817	70.28254248997	13
7	877	77.2477105848	14
7	962	85.64580000116	15
7	969	86.13645679377	16
7	974	87.33475689057	17
7	1047	94.79953732089	18
7	1065	96.30128795574	19
7	1075	96.77779735991	20
7	1083	97.01927122058	21
7	1224	104.60030521493	22
7	1235	105.29325633187	23
7	1353	116.27121742176	24
7	1388	118.98447982598	25
7	1396	119.34250936721	26
7	1513	129.83970819916	27
7	1517	130.10098031832	28
7	1561	135.37147660218	29
7	1579	137.46236596935	30
7	1625	141.87616750891	31
7	1649	144.88691284534	32
7	1671	147.6375164866	33
7	1681	148.46984147503	34
7	1696	149.39909063805	35
7	1710	150.30538923682	36
7	1841	154.29452181192	37
7	1853	154.69399936025	38
7	1857	155.36340432068	39
7	1932	160.6432714662	40
7	1954	163.06382210287	41
7	1958	163.9767011905	42
7	1991	168.76401065144	43
7	2011	169.61793524622	44
7	2112	180.73016605633	45
7	2127	181.98667369545	46
7	2175	185.6326182023	47
7	2179	185.89140555184	48
7	2210	190.28753701591	49
7	2214	190.43296151506	50
7	2228	192.10437634787	51
7	2255	194.39970667999	52
7	2263	194.98180860763	53
7	2276	195.98582103027	54
7	2286	197.12254588783	55
7	2308	198.30313080914	56
7	2455	205.52959343012	57
7	2465	205.9561951353	58
7	2496	208.80776667912	59
7	2516	209.83649185037	60
7	2551	212.25369412782	61
7	2575	214.80587414227	62
7	2593	217.90132960634	63
7	2610	219.99530328197	64
7	2625	221.73452067299	65
7	2630	221.97230895146	66
7	2637	222.20015615402	67
7	2657	223.2673282741	68
7	2665	223.8167411378	69
7	2686	225.44612326952	70
7	2690	225.47076872427	71
7	2702	226.29512130743	72
7	2706	226.61298644906	73
7	2745	230.0411026655	74
7	2764	233.7838182167	75
7	2793	236.55292613528	76
7	2864	242.42586947456	77
7	2890	244.04355640467	78
7	2901	244.47175087751	79
7	2910	245.49761616268	80
7	2914	245.90103575009	81
7	2931	247.44316882048	82
7	2936	247.63336488738	83
7	2947	250.5758888191	84
7	3055	252.26325999074	85
7	3059	252.9087910217	86
7	3108	256.65205160266	87
7	3124	257.63432275381	88
7	3128	257.82252727486	89
7	3140	258.93076372444	90
7	3163	261.32489601246	91
7	3198	263.36914306033	92
7	3222	267.46709634959	93
7	3230	268.46986086168	94
7	3269	275.57471058275	95
7	3279	276.14818200346	96
7	3283	277.21623708125	97
7	3308	279.19206049751	98
7	3312	279.23582152639	99
7	3336	283.23660869845	100
7	3351	284.95122177004	101
7	3384	289.82929237762	102
7	3389	290.96468098791	103
7	3400	293.76065732205	104
7	3527	308.89350446633	105
7	3532	310.04305076067	106
7	3546	314.11852836834	107
7	3571	322.43735342033	108
7	3585	326.31889895761	109
7	3590	327.66057301293	110
7	3632	338.38389234365	111
7	3649	344.26016620689	112
7	3663	347.40256788783	113
7	3667	347.62173567879	114
7	3776	353.14119696364	115
7	3803	361.02222535402	116
7	3814	362.90040401024	117
7	3840	370.63829182976	118
7	3853	373.40143490808	119
7	3862	374.39689929694	120
7	3885	382.72100704818	121
7	3911	391.3356643692	122
7	3927	398.54470197055	123
7	4030	401.74163247206	124
7	4061	412.06231485763	125
7	4075	418.04374641617	126
7	4093	424.39253125516	127
7	4104	426.59952068449	128
7	4135	442.40099302371	129
7	4256	455.20590390888	130
7	4294	473.1327261065	131
7	4337	495.1454857841	132
7	4463	510.63884994009	133
8	160	8.6323445428	1
8	200	16.28533629295	2
8	234	22.3598713938	3
8	344	30.00151245034	4
8	369	33.25909624671	5
8	378	34.43523603668	6
8	392	36.37514593409	7
8	404	37.26692231781	8
8	669	55.01670545958	9
8	677	55.87655633552	10
8	694	58.70920752388	11
8	793	66.50965991257	12
8	817	70.28254248997	13
8	877	77.2477105848	14
8	962	85.64580000116	15
8	969	86.13645679377	16
8	974	87.33475689057	17
8	1047	94.79953732089	18
8	1065	96.30128795574	19
8	1075	96.77779735991	20
8	1083	97.01927122058	21
8	1224	104.60030521493	22
8	1235	105.29325633187	23
8	1353	116.27121742176	24
8	1388	118.98447982598	25
8	1396	119.34250936721	26
8	1513	129.83970819916	27
8	1517	130.10098031832	28
8	1561	135.37147660218	29
8	1579	137.46236596935	30
8	1625	141.87616750891	31
8	1649	144.88691284534	32
8	1671	147.6375164866	33
8	1681	148.46984147503	34
8	1696	149.39909063805	35
8	1710	150.30538923682	36
8	1841	154.29452181192	37
8	1853	154.69399936025	38
8	1857	155.36340432068	39
8	1932	160.6432714662	40
8	1954	163.06382210287	41
8	1958	163.9767011905	42
8	1991	168.76401065144	43
8	2011	169.61793524622	44
8	2112	180.73016605633	45
8	2127	181.98667369545	46
8	2175	185.6326182023	47
8	2179	185.89140555184	48
8	2210	190.28753701591	49
8	2214	190.43296151506	50
8	2228	192.10437634787	51
8	2255	194.39970667999	52
8	2263	194.98180860763	53
8	2276	195.98582103027	54
8	2286	197.12254588783	55
8	2308	198.30313080914	56
8	2455	205.52959343012	57
8	2465	205.9561951353	58
8	2496	208.80776667912	59
8	2516	209.83649185037	60
8	2551	212.25369412782	61
8	2575	214.80587414227	62
8	2593	217.90132960634	63
8	2610	219.99530328197	64
8	2625	221.73452067299	65
8	2630	221.97230895146	66
8	2637	222.20015615402	67
8	2657	223.2673282741	68
8	2665	223.8167411378	69
8	2686	225.44612326952	70
8	2690	225.47076872427	71
8	2702	226.29512130743	72
8	2706	226.61298644906	73
8	2745	230.0411026655	74
8	2764	233.7838182167	75
8	2793	236.55292613528	76
8	2864	242.42586947456	77
8	2890	244.04355640467	78
8	2901	244.47175087751	79
8	2910	245.49761616268	80
8	2914	245.90103575009	81
8	2931	247.44316882048	82
8	2936	247.63336488738	83
8	2947	250.5758888191	84
8	3055	252.26325999074	85
8	3059	252.9087910217	86
8	3108	256.65205160266	87
8	3124	257.63432275381	88
8	3128	257.82252727486	89
8	3140	258.93076372444	90
8	3163	261.32489601246	91
8	3198	263.36914306033	92
8	3222	267.46709634959	93
8	3230	268.46986086168	94
8	3269	275.57471058275	95
8	3279	276.14818200346	96
8	3283	277.21623708125	97
8	3308	279.19206049751	98
8	3312	279.23582152639	99
8	3336	283.23660869845	100
8	3351	284.95122177004	101
8	3384	289.82929237762	102
8	3389	290.96468098791	103
8	3400	293.76065732205	104
8	3527	308.89350446633	105
8	3532	310.04305076067	106
8	3546	314.11852836834	107
8	3571	322.43735342033	108
8	3585	326.31889895761	109
8	3590	327.66057301293	110
8	3632	338.38389234365	111
8	3649	344.26016620689	112
8	3663	347.40256788783	113
8	3667	347.62173567879	114
8	3776	353.14119696364	115
8	3803	361.02222535402	116
8	3814	362.90040401024	117
8	3840	370.63829182976	118
8	3853	373.40143490808	119
8	3862	374.39689929694	120
8	3885	382.72100704818	121
8	3911	391.3356643692	122
8	3927	398.54470197055	123
8	4030	401.74163247206	124
8	4061	412.06231485763	125
8	4075	418.04374641617	126
8	4093	424.39253125516	127
8	4104	426.59952068449	128
8	4135	442.40099302371	129
8	4256	455.20590390888	130
8	4294	473.1327261065	131
8	4337	495.1454857841	132
8	4463	510.63884994009	133
9	199	16.28533629295	180
9	377	34.43523603668	180
9	1560	135.37147660218	180
9	1670	147.6375164866	180
9	2178	185.89140555184	180
9	2495	208.80776667912	180
9	2636	222.20015615402	180
9	2863	242.42586947456	180
9	3221	267.46709634959	180
10	199	16.28533629295	15.28533629295
10	377	34.43523603668	33.43523603668
10	1560	135.37147660218	134.37147660218
10	1670	147.6375164866	146.6375164866
10	2178	185.89140555184	184.89140555184
10	2495	208.80776667912	207.80776667912
10	2636	222.20015615402	221.20015615402
10	2863	242.42586947456	241.42586947456
10	3221	267.46709634959	266.46709634959
11	199	16.28533629295	15.28533629295
12	233	22.3598713938	180
12	391	36.37514593409	180
12	693	58.70920752388	180
12	1082	97.01927122058	180
12	1578	137.46236596935	180
13	233	22.3598713938	21.3598713938
13	391	36.37514593409	35.37514593409
13	693	58.70920752388	57.70920752388
13	1082	97.01927122058	96.01927122058
13	1578	137.46236596935	136.46236596935
14	233	22.3598713938	21.3598713938
15	343	30.00151245034	180
15	961	85.64580000116	180
15	1074	96.77779735991	180
15	1395	119.34250936721	180
15	1516	130.10098031832	180
15	1852	154.69399936025	180
15	1990	168.76401065144	180
15	2174	185.6326182023	180
15	2275	195.98582103027	180
15	2515	209.83649185037	180
15	2689	225.47076872427	180
16	343	30.00151245034	29.00151245034
16	961	85.64580000116	84.64580000116
16	1074	96.77779735991	95.77779735991
16	1395	119.34250936721	118.34250936721
16	1516	130.10098031832	129.10098031832
16	1852	154.69399936025	153.69399936025
16	1990	168.76401065144	167.76401065144
16	2174	185.6326182023	184.6326182023
16	2275	195.98582103027	194.98582103027
16	2515	209.83649185037	208.83649185037
16	2689	225.47076872427	224.47076872427
17	343	30.00151245034	29.00151245034
18	368	33.25909624671	180
18	2629	221.97230895146	180
18	3631	338.38389234365	180
18	3861	374.39689929694	180
18	3910	391.3356643692	180
18	4029	401.74163247206	180
18	4103	426.59952068449	180
19	368	33.25909624671	32.25909624671
19	2629	221.97230895146	220.97230895146
19	3631	338.38389234365	337.38389234365
19	3861	374.39689929694	373.39689929694
19	3910	391.3356643692	390.3356643692
19	4029	401.74163247206	400.74163247206
19	4103	426.59952068449	425.59952068449
20	368	33.25909624671	32.25909624671
21	403	37.26692231781	180
21	668	55.01670545958	180
21	792	66.50965991257	180
21	876	77.2477105848	180
21	1064	96.30128795574	180
21	1352	116.27121742176	180
21	1512	129.83970819916	180
21	1680	148.46984147503	180
21	2010	169.61793524622	180
21	2254	194.39970667999	180
21	2454	205.52959343012	180
21	2656	223.2673282741	180
21	3127	257.82252727486	180
22	403	37.26692231781	36.26692231781
22	668	55.01670545958	54.01670545958
22	792	66.50965991257	65.50965991257
22	876	77.2477105848	76.2477105848
22	1064	96.30128795574	95.30128795574
22	1352	116.27121742176	115.27121742176
22	1512	129.83970819916	128.83970819916
22	1680	148.46984147503	147.46984147503
22	2010	169.61793524622	168.61793524622
22	2254	194.39970667999	193.39970667999
22	2454	205.52959343012	204.52959343012
22	2656	223.2673282741	222.2673282741
22	3127	257.82252727486	256.82252727486
23	403	37.26692231781	36.26692231781
24	676	55.87655633552	180
24	1957	163.9767011905	180
24	2946	250.5758888191	180
25	676	55.87655633552	54.87655633552
25	1957	163.9767011905	162.9767011905
25	2946	250.5758888191	249.5758888191
26	676	55.87655633552	54.87655633552
27	816	70.28254248997	180
27	1046	94.79953732089	180
28	816	70.28254248997	69.28254248997
28	1046	94.79953732089	93.79953732089
29	816	70.28254248997	69.28254248997
30	968	86.13645679377	180
30	2227	192.10437634787	180
30	2930	247.44316882048	180
30	3350	284.95122177004	180
30	3926	398.54470197055	180
30	4060	412.06231485763	180
30	4092	424.39253125516	180
31	968	86.13645679377	85.13645679377
31	2227	192.10437634787	191.10437634787
31	2930	247.44316882048	246.44316882048
31	3350	284.95122177004	283.95122177004
31	3926	398.54470197055	397.54470197055
31	4060	412.06231485763	411.06231485763
31	4092	424.39253125516	423.39253125516
32	968	86.13645679377	85.13645679377
33	1223	104.60030521493	180
33	1709	150.30538923682	180
33	2307	198.30313080914	180
33	2609	219.99530328197	180
33	3399	293.76065732205	180
33	3545	314.11852836834	180
33	3584	326.31889895761	180
33	3662	347.40256788783	180
33	3802	361.02222535402	180
33	3852	373.40143490808	180
34	1223	104.60030521493	103.60030521493
34	1709	150.30538923682	149.30538923682
34	2307	198.30313080914	197.30313080914
34	2609	219.99530328197	218.99530328197
34	3399	293.76065732205	292.76065732205
34	3545	314.11852836834	313.11852836834
34	3584	326.31889895761	325.31889895761
34	3662	347.40256788783	346.40256788783
34	3802	361.02222535402	360.02222535402
34	3852	373.40143490808	372.40143490808
35	1223	104.60030521493	103.60030521493
36	1234	105.29325633187	180
36	2209	190.28753701591	180
36	2574	214.80587414227	180
36	2763	233.7838182167	180
36	2935	247.63336488738	180
36	3123	257.63432275381	180
36	3278	276.14818200346	180
36	3383	289.82929237762	180
36	3526	308.89350446633	180
37	1234	105.29325633187	104.29325633187
37	2209	190.28753701591	189.28753701591
37	2574	214.80587414227	213.80587414227
37	2763	233.7838182167	232.7838182167
37	2935	247.63336488738	246.63336488738
37	3123	257.63432275381	256.63432275381
37	3278	276.14818200346	275.14818200346
37	3383	289.82929237762	288.82929237762
37	3526	308.89350446633	307.89350446633
38	1234	105.29325633187	104.29325633187
39	1387	118.98447982598	180
39	2664	223.8167411378	180
39	3570	322.43735342033	180
39	3648	344.26016620689	180
39	3839	370.63829182976	180
39	3884	382.72100704818	180
40	1387	118.98447982598	117.98447982598
40	2664	223.8167411378	222.8167411378
40	3570	322.43735342033	321.43735342033
40	3648	344.26016620689	343.26016620689
40	3839	370.63829182976	369.63829182976
40	3884	382.72100704818	381.72100704818
41	1387	118.98447982598	117.98447982598
42	1624	141.87616750891	180
42	1953	163.06382210287	180
42	2111	180.73016605633	180
42	2685	225.44612326952	180
42	2889	244.04355640467	180
42	3229	268.46986086168	180
43	1624	141.87616750891	140.87616750891
43	1953	163.06382210287	162.06382210287
43	2111	180.73016605633	179.73016605633
43	2685	225.44612326952	224.44612326952
43	2889	244.04355640467	243.04355640467
43	3229	268.46986086168	267.46986086168
44	1624	141.87616750891	140.87616750891
45	1648	144.88691284534	180
46	1648	144.88691284534	143.88691284534
47	1648	144.88691284534	143.88691284534
48	1695	149.39909063805	180
48	3054	252.26325999074	180
48	3268	275.57471058275	180
49	1695	149.39909063805	148.39909063805
49	3054	252.26325999074	251.26325999074
49	3268	275.57471058275	274.57471058275
50	1695	149.39909063805	148.39909063805
51	1840	154.29452181192	180
51	2592	217.90132960634	180
51	2792	236.55292613528	180
51	3162	261.32489601246	180
51	3775	353.14119696364	180
52	1840	154.29452181192	153.29452181192
52	2592	217.90132960634	216.90132960634
52	2792	236.55292613528	235.55292613528
52	3162	261.32489601246	260.32489601246
52	3775	353.14119696364	352.14119696364
53	1840	154.29452181192	153.29452181192
54	1856	155.36340432068	180
54	3311	279.23582152639	180
55	1856	155.36340432068	154.36340432068
55	3311	279.23582152639	278.23582152639
56	1856	155.36340432068	154.36340432068
57	1931	160.6432714662	180
57	2126	181.98667369545	180
57	2701	226.29512130743	180
57	2900	244.47175087751	180
57	3139	258.93076372444	180
57	3335	283.23660869845	180
58	1931	160.6432714662	159.6432714662
58	2126	181.98667369545	180.98667369545
58	2701	226.29512130743	225.29512130743
58	2900	244.47175087751	243.47175087751
58	3139	258.93076372444	257.93076372444
58	3335	283.23660869845	282.23660869845
59	1931	160.6432714662	159.6432714662
60	2213	190.43296151506	180
60	2705	226.61298644906	180
61	2213	190.43296151506	189.43296151506
61	2705	226.61298644906	225.61298644906
62	2213	190.43296151506	189.43296151506
63	2262	194.98180860763	180
63	2464	205.9561951353	180
63	2624	221.73452067299	180
63	3107	256.65205160266	180
63	4074	418.04374641617	180
63	4134	442.40099302371	180
63	4255	455.20590390888	180
63	4293	473.1327261065	180
63	4336	495.1454857841	180
63	4462	510.63884994009	180
64	2262	194.98180860763	193.98180860763
64	2464	205.9561951353	204.9561951353
64	2624	221.73452067299	220.73452067299
64	3107	256.65205160266	255.65205160266
64	4074	418.04374641617	417.04374641617
64	4134	442.40099302371	441.40099302371
64	4255	455.20590390888	454.20590390888
64	4293	473.1327261065	472.1327261065
64	4336	495.1454857841	494.1454857841
64	4462	510.63884994009	509.63884994009
65	2262	194.98180860763	193.98180860763
66	2285	197.12254588783	180
67	2285	197.12254588783	196.12254588783
68	2285	197.12254588783	196.12254588783
69	2550	212.25369412782	180
69	3388	290.96468098791	180
70	2550	212.25369412782	211.25369412782
70	3388	290.96468098791	289.96468098791
71	2550	212.25369412782	211.25369412782
72	2744	230.0411026655	180
72	3531	310.04305076067	180
72	3589	327.66057301293	180
72	3666	347.62173567879	180
72	3813	362.90040401024	180
73	2744	230.0411026655	229.0411026655
73	3531	310.04305076067	309.04305076067
73	3589	327.66057301293	326.66057301293
73	3666	347.62173567879	346.62173567879
73	3813	362.90040401024	361.90040401024
74	2744	230.0411026655	229.0411026655
75	2909	245.49761616268	180
75	3197	263.36914306033	180
75	3307	279.19206049751	180
76	2909	245.49761616268	244.49761616268
76	3197	263.36914306033	262.36914306033
76	3307	279.19206049751	278.19206049751
77	2909	245.49761616268	244.49761616268
78	2913	245.90103575009	180
79	2913	245.90103575009	244.90103575009
80	2913	245.90103575009	244.90103575009
81	3282	277.21623708125	180
82	3282	277.21623708125	276.21623708125
83	3282	277.21623708125	276.21623708125

